<?xml version="1.0" encoding="UTF-8"?>

<!-- generated on 12/06/23 14:36:19 by Eclipse SUMO netconvert Version 1.7.0
<configuration xmlns:xsi="http://www.w3.org/2001/XMLSchema-instance" xsi:noNamespaceSchemaLocation="http://sumo.dlr.de/xsd/netconvertConfiguration.xsd">

    <input>
        <osm-files value="downtown.osm"/>
    </input>

    <output>
        <output-file value="downtown.net.xml"/>
    </output>

    <projection>
        <proj.utm value="true"/>
    </projection>

    <processing>
        <geometry.remove value="true"/>
        <roundabouts.guess value="true"/>
    </processing>

    <tls_building>
        <tls.discard-simple value="true"/>
        <tls.join value="true"/>
        <tls.guess-signals value="true"/>
    </tls_building>

    <junctions>
        <junctions.join value="true"/>
    </junctions>

    <report>
        <aggregate-warnings value="5"/>
    </report>

</configuration>
-->

<net version="1.6" junctionCornerDetail="5" limitTurnSpeed="5.50" xmlns:xsi="http://www.w3.org/2001/XMLSchema-instance" xsi:noNamespaceSchemaLocation="http://sumo.dlr.de/xsd/net_file.xsd">

    <location netOffset="-708752.76,-4288285.49" convBoundary="0.00,0.00,8365.50,2596.23" origBoundary="35.401915,38.711982,35.506234,38.741962" projParameter="+proj=utm +zone=36 +ellps=WGS84 +datum=WGS84 +units=m +no_defs"/>

    <type id="highway.bridleway" priority="1" numLanes="1" speed="2.78" allow="pedestrian" oneway="1" width="2.00"/>
    <type id="highway.bus_guideway" priority="1" numLanes="1" speed="27.78" allow="bus" oneway="1"/>
    <type id="highway.cycleway" priority="1" numLanes="1" speed="8.33" allow="bicycle" oneway="0" width="1.00"/>
    <type id="highway.footway" priority="1" numLanes="1" speed="2.78" allow="pedestrian" oneway="1" width="2.00"/>
    <type id="highway.ford" priority="1" numLanes="1" speed="2.78" allow="army" oneway="0"/>
    <type id="highway.living_street" priority="2" numLanes="1" speed="2.78" disallow="tram rail_urban rail rail_electric rail_fast ship" oneway="0"/>
    <type id="highway.motorway" priority="14" numLanes="2" speed="39.44" allow="private emergency authority army vip passenger hov taxi bus coach delivery truck trailer motorcycle evehicle custom1 custom2" oneway="1"/>
    <type id="highway.motorway_link" priority="9" numLanes="1" speed="22.22" allow="private emergency authority army vip passenger hov taxi bus coach delivery truck trailer motorcycle evehicle custom1 custom2" oneway="1"/>
    <type id="highway.path" priority="1" numLanes="1" speed="2.78" allow="pedestrian bicycle" oneway="1" width="2.00"/>
    <type id="highway.pedestrian" priority="1" numLanes="1" speed="2.78" allow="pedestrian" oneway="1" width="2.00"/>
    <type id="highway.primary" priority="12" numLanes="2" speed="27.78" disallow="tram rail_urban rail rail_electric rail_fast ship" oneway="0"/>
    <type id="highway.primary_link" priority="7" numLanes="1" speed="22.22" disallow="tram rail_urban rail rail_electric rail_fast ship" oneway="0"/>
    <type id="highway.raceway" priority="15" numLanes="2" speed="83.33" allow="vip" oneway="0"/>
    <type id="highway.residential" priority="3" numLanes="1" speed="13.89" disallow="tram rail_urban rail rail_electric rail_fast ship" oneway="0"/>
    <type id="highway.secondary" priority="11" numLanes="1" speed="27.78" disallow="tram rail_urban rail rail_electric rail_fast ship" oneway="0"/>
    <type id="highway.secondary_link" priority="6" numLanes="1" speed="22.22" disallow="tram rail_urban rail rail_electric rail_fast ship" oneway="0"/>
    <type id="highway.service" priority="1" numLanes="1" speed="5.56" allow="pedestrian delivery bicycle" oneway="0"/>
    <type id="highway.stairs" priority="1" numLanes="1" speed="1.39" allow="pedestrian" oneway="1" width="2.00"/>
    <type id="highway.step" priority="1" numLanes="1" speed="1.39" allow="pedestrian" oneway="1" width="2.00"/>
    <type id="highway.steps" priority="1" numLanes="1" speed="1.39" allow="pedestrian" oneway="1" width="2.00"/>
    <type id="highway.tertiary" priority="10" numLanes="1" speed="22.22" disallow="tram rail_urban rail rail_electric rail_fast ship" oneway="0"/>
    <type id="highway.tertiary_link" priority="5" numLanes="1" speed="22.22" disallow="tram rail_urban rail rail_electric rail_fast ship" oneway="0"/>
    <type id="highway.track" priority="1" numLanes="1" speed="5.56" allow="pedestrian motorcycle moped bicycle" oneway="0"/>
    <type id="highway.trunk" priority="13" numLanes="2" speed="27.78" disallow="pedestrian bicycle tram rail_urban rail rail_electric rail_fast ship" oneway="0"/>
    <type id="highway.trunk_link" priority="8" numLanes="1" speed="22.22" disallow="pedestrian bicycle tram rail_urban rail rail_electric rail_fast ship" oneway="0"/>
    <type id="highway.unclassified" priority="4" numLanes="1" speed="13.89" disallow="tram rail_urban rail rail_electric rail_fast ship" oneway="0"/>
    <type id="highway.unsurfaced" priority="1" numLanes="1" speed="8.33" disallow="tram rail_urban rail rail_electric rail_fast ship" oneway="0"/>
    <type id="railway.highspeed" priority="21" numLanes="1" speed="69.44" allow="rail_fast" oneway="1"/>
    <type id="railway.light_rail" priority="19" numLanes="1" speed="27.78" allow="rail_urban" oneway="1"/>
    <type id="railway.preserved" priority="16" numLanes="1" speed="27.78" allow="rail" oneway="1"/>
    <type id="railway.rail" priority="20" numLanes="1" speed="44.44" allow="rail" oneway="1"/>
    <type id="railway.subway" priority="18" numLanes="1" speed="27.78" allow="rail_urban" oneway="1"/>
    <type id="railway.tram" priority="17" numLanes="1" speed="13.89" allow="tram" oneway="1"/>

    <edge id=":11077184674_0" function="internal">
        <lane id=":11077184674_0_0" index="0" disallow="pedestrian bicycle tram rail_urban rail rail_electric rail_fast ship" speed="27.78" length="4.33" shape="7594.68,598.66 7598.52,596.64"/>
        <lane id=":11077184674_0_1" index="1" disallow="pedestrian bicycle tram rail_urban rail rail_electric rail_fast ship" speed="27.78" length="4.33" shape="7596.17,601.49 7600.01,599.47"/>
        <lane id=":11077184674_0_2" index="2" disallow="pedestrian bicycle tram rail_urban rail rail_electric rail_fast ship" speed="27.78" length="4.33" shape="7597.66,604.33 7601.50,602.31"/>
    </edge>
    <edge id=":11077184685_0" function="internal">
        <lane id=":11077184685_0_0" index="0" allow="tram" speed="13.89" length="22.11" shape="7254.61,491.41 7275.11,499.71"/>
    </edge>
    <edge id=":11077184685_1" function="internal">
        <lane id=":11077184685_1_0" index="0" allow="tram" speed="13.89" length="22.11" shape="7253.59,494.69 7258.36,495.67 7264.44,496.90 7270.48,498.28 7275.11,499.71"/>
    </edge>
    <edge id=":11077184686_0" function="internal">
        <lane id=":11077184686_0_0" index="0" allow="tram" speed="13.89" length="2.76" shape="7247.76,493.66 7245.19,492.66"/>
    </edge>
    <edge id=":11077333750_0" function="internal">
        <lane id=":11077333750_0_0" index="0" disallow="tram rail_urban rail rail_electric rail_fast ship" speed="13.89" length="9.44" shape="7400.07,244.51 7405.94,251.90"/>
    </edge>
    <edge id=":11077333750_1" function="internal">
        <lane id=":11077333750_1_0" index="0" disallow="tram rail_urban rail rail_electric rail_fast ship" speed="6.21" length="7.87" shape="7400.07,244.51 7401.64,246.77 7402.41,248.68 7402.39,250.26 7401.58,251.49"/>
    </edge>
    <edge id=":11077333750_2" function="internal">
        <lane id=":11077333750_2_0" index="0" disallow="tram rail_urban rail rail_electric rail_fast ship" speed="6.02" length="1.29" shape="7399.46,249.09 7400.62,248.53"/>
    </edge>
    <edge id=":11077333750_3" function="internal">
        <lane id=":11077333750_3_0" index="0" disallow="tram rail_urban rail rail_electric rail_fast ship" speed="3.65" length="1.33" shape="7399.46,249.09 7400.78,248.92"/>
    </edge>
    <edge id=":11077333750_4" function="internal">
        <lane id=":11077333750_4_0" index="0" disallow="tram rail_urban rail rail_electric rail_fast ship" speed="6.02" length="6.63" shape="7400.62,248.53 7400.82,248.43 7402.35,248.68 7404.06,249.83 7405.94,251.90"/>
    </edge>
    <edge id=":11077333750_5" function="internal">
        <lane id=":11077333750_5_0" index="0" disallow="tram rail_urban rail rail_electric rail_fast ship" speed="3.65" length="3.34" shape="7400.78,248.92 7400.89,248.90 7401.72,249.24 7401.95,250.10 7401.58,251.49"/>
    </edge>
    <edge id=":11077333752_0" function="internal">
        <lane id=":11077333752_0_0" index="0" disallow="tram rail_urban rail rail_electric rail_fast ship" speed="6.51" length="9.03" shape="7374.78,275.08 7373.17,276.96 7372.55,278.90 7372.92,280.91 7374.27,282.98"/>
    </edge>
    <edge id=":11077333752_1" function="internal">
        <lane id=":11077333752_1_0" index="0" disallow="tram rail_urban rail rail_electric rail_fast ship" speed="3.65" length="2.54" shape="7374.78,275.08 7373.35,275.27 7372.52,274.93 7372.47,274.73"/>
    </edge>
    <edge id=":11077333752_4" function="internal">
        <lane id=":11077333752_4_0" index="0" disallow="tram rail_urban rail rail_electric rail_fast ship" speed="3.65" length="2.13" shape="7372.47,274.73 7372.29,274.07 7372.66,272.68"/>
    </edge>
    <edge id=":11077333752_2" function="internal">
        <lane id=":11077333752_2_0" index="0" disallow="tram rail_urban rail rail_electric rail_fast ship" speed="6.82" length="9.28" shape="7364.36,272.76 7366.37,274.15 7368.43,274.60 7370.52,274.11 7372.66,272.68"/>
    </edge>
    <edge id=":11077333752_3" function="internal">
        <lane id=":11077333752_3_0" index="0" disallow="tram rail_urban rail rail_electric rail_fast ship" speed="13.89" length="14.24" shape="7364.36,272.76 7366.99,275.27 7369.45,277.74 7371.84,280.28 7374.27,282.98"/>
    </edge>
    <edge id=":11077333757_0" function="internal">
        <lane id=":11077333757_0_0" index="0" disallow="tram rail_urban rail rail_electric rail_fast ship" speed="13.89" length="9.40" shape="7425.81,276.78 7431.79,284.03"/>
    </edge>
    <edge id=":11077333757_1" function="internal">
        <lane id=":11077333757_1_0" index="0" disallow="tram rail_urban rail rail_electric rail_fast ship" speed="6.10" length="7.77" shape="7425.81,276.78 7427.41,279.03 7428.22,280.92 7428.22,282.45 7427.42,283.63"/>
    </edge>
    <edge id=":11077333757_2" function="internal">
        <lane id=":11077333757_2_0" index="0" disallow="tram rail_urban rail rail_electric rail_fast ship" speed="6.07" length="1.12" shape="7425.37,281.18 7426.40,280.72"/>
    </edge>
    <edge id=":11077333757_3" function="internal">
        <lane id=":11077333757_3_0" index="0" disallow="tram rail_urban rail rail_electric rail_fast ship" speed="3.65" length="1.17" shape="7425.37,281.18 7426.53,281.05"/>
    </edge>
    <edge id=":11077333757_4" function="internal">
        <lane id=":11077333757_4_0" index="0" disallow="tram rail_urban rail rail_electric rail_fast ship" speed="6.07" length="6.66" shape="7426.40,280.72 7426.67,280.60 7428.18,280.88 7429.88,282.03 7431.79,284.03"/>
    </edge>
    <edge id=":11077333757_5" function="internal">
        <lane id=":11077333757_5_0" index="0" disallow="tram rail_urban rail rail_electric rail_fast ship" speed="3.65" length="3.50" shape="7426.53,281.05 7426.80,281.02 7427.62,281.38 7427.83,282.25 7427.42,283.63"/>
    </edge>
    <edge id=":11077333762_0" function="internal">
        <lane id=":11077333762_0_0" index="0" disallow="tram rail_urban rail rail_electric rail_fast ship" speed="6.45" length="9.03" shape="7388.82,290.98 7387.16,292.83 7386.50,294.75 7386.85,296.75 7388.21,298.83"/>
    </edge>
    <edge id=":11077333762_1" function="internal">
        <lane id=":11077333762_1_0" index="0" disallow="tram rail_urban rail rail_electric rail_fast ship" speed="3.65" length="2.55" shape="7388.82,290.98 7387.39,291.13 7386.57,290.78 7386.52,290.57"/>
    </edge>
    <edge id=":11077333762_4" function="internal">
        <lane id=":11077333762_4_0" index="0" disallow="tram rail_urban rail rail_electric rail_fast ship" speed="3.65" length="2.12" shape="7386.52,290.57 7386.37,289.90 7386.78,288.52"/>
    </edge>
    <edge id=":11077333762_2" function="internal">
        <lane id=":11077333762_2_0" index="0" disallow="tram rail_urban rail rail_electric rail_fast ship" speed="6.61" length="9.17" shape="7378.70,288.02 7380.58,289.61 7382.55,290.23 7384.62,289.87 7386.78,288.52"/>
    </edge>
    <edge id=":11077333762_3" function="internal">
        <lane id=":11077333762_3_0" index="0" disallow="tram rail_urban rail rail_electric rail_fast ship" speed="13.89" length="14.40" shape="7378.70,288.02 7388.21,298.83"/>
    </edge>
    <edge id=":11077333763_0" function="internal">
        <lane id=":11077333763_0_0" index="0" disallow="tram rail_urban rail rail_electric rail_fast ship" speed="13.89" length="9.36" shape="7413.83,262.03 7419.68,269.33"/>
    </edge>
    <edge id=":11077333763_1" function="internal">
        <lane id=":11077333763_1_0" index="0" disallow="tram rail_urban rail rail_electric rail_fast ship" speed="6.15" length="7.75" shape="7413.83,262.03 7415.36,264.31 7416.12,266.21 7416.11,267.75 7415.32,268.92"/>
    </edge>
    <edge id=":11077333763_2" function="internal">
        <lane id=":11077333763_2_0" index="0" disallow="tram rail_urban rail rail_electric rail_fast ship" speed="6.08" length="1.14" shape="7413.27,266.46 7414.32,266.00"/>
    </edge>
    <edge id=":11077333763_3" function="internal">
        <lane id=":11077333763_3_0" index="0" disallow="tram rail_urban rail rail_electric rail_fast ship" speed="3.65" length="1.19" shape="7413.27,266.46 7414.45,266.33"/>
    </edge>
    <edge id=":11077333763_4" function="internal">
        <lane id=":11077333763_4_0" index="0" disallow="tram rail_urban rail rail_electric rail_fast ship" speed="6.08" length="6.63" shape="7414.32,266.00 7414.57,265.89 7416.07,266.18 7417.78,267.32 7419.68,269.33"/>
    </edge>
    <edge id=":11077333763_5" function="internal">
        <lane id=":11077333763_5_0" index="0" disallow="tram rail_urban rail rail_electric rail_fast ship" speed="3.65" length="3.49" shape="7414.45,266.33 7414.70,266.31 7415.52,266.67 7415.73,267.54 7415.32,268.92"/>
    </edge>
    <edge id=":11077333764_0" function="internal">
        <lane id=":11077333764_0_0" index="0" disallow="tram rail_urban rail rail_electric rail_fast ship" speed="6.45" length="9.03" shape="7401.48,305.37 7399.82,307.22 7399.17,309.14 7399.52,311.14 7400.88,313.22"/>
    </edge>
    <edge id=":11077333764_1" function="internal">
        <lane id=":11077333764_1_0" index="0" disallow="tram rail_urban rail rail_electric rail_fast ship" speed="3.65" length="2.55" shape="7401.48,305.37 7400.04,305.52 7399.22,305.17 7399.17,304.96"/>
    </edge>
    <edge id=":11077333764_4" function="internal">
        <lane id=":11077333764_4_0" index="0" disallow="tram rail_urban rail rail_electric rail_fast ship" speed="3.65" length="2.12" shape="7399.17,304.96 7399.02,304.30 7399.42,302.91"/>
    </edge>
    <edge id=":11077333764_2" function="internal">
        <lane id=":11077333764_2_0" index="0" disallow="tram rail_urban rail rail_electric rail_fast ship" speed="6.60" length="9.16" shape="7391.37,302.41 7393.25,304.01 7395.22,304.62 7397.28,304.26 7399.42,302.91"/>
    </edge>
    <edge id=":11077333764_3" function="internal">
        <lane id=":11077333764_3_0" index="0" disallow="tram rail_urban rail rail_electric rail_fast ship" speed="13.89" length="14.40" shape="7391.37,302.41 7400.88,313.22"/>
    </edge>
    <edge id=":148424403_0" function="internal">
        <lane id=":148424403_0_0" index="0" disallow="pedestrian bicycle tram rail_urban rail rail_electric rail_fast ship" speed="27.78" length="25.10" shape="7075.98,443.75 7069.49,442.06 7064.11,439.94 7058.82,437.49 7052.62,434.81"/>
        <lane id=":148424403_0_1" index="1" disallow="pedestrian bicycle tram rail_urban rail rail_electric rail_fast ship" speed="27.78" length="25.10" shape="7077.24,440.73 7070.74,439.06 7065.32,436.95 7060.00,434.50 7053.80,431.83"/>
    </edge>
    <edge id=":148424403_2" function="internal">
        <lane id=":148424403_2_0" index="0" disallow="pedestrian bicycle tram rail_urban rail rail_electric rail_fast ship" speed="13.52" length="25.40" shape="7077.24,440.73 7071.24,438.76 7066.26,435.38 7062.31,430.59 7059.39,424.38"/>
    </edge>
    <edge id=":148424403_3" function="internal">
        <lane id=":148424403_3_0" index="0" disallow="pedestrian bicycle tram rail_urban rail rail_electric rail_fast ship" speed="10.75" length="20.28" shape="7067.54,447.08 7066.77,443.98 7064.03,440.90 7059.31,437.85 7052.62,434.81"/>
    </edge>
    <edge id=":148424403_4" function="internal">
        <lane id=":148424403_4_0" index="0" disallow="pedestrian bicycle tram rail_urban rail rail_electric rail_fast ship" speed="11.73" length="24.27" shape="7070.73,447.30 7069.90,443.13 7066.80,439.16 7061.43,435.39 7053.80,431.83"/>
    </edge>
    <edge id=":148424403_5" function="internal">
        <lane id=":148424403_5_0" index="0" disallow="pedestrian bicycle tram rail_urban rail rail_electric rail_fast ship" speed="27.78" length="24.94" shape="7070.73,447.30 7069.35,441.30 7065.37,437.11 7060.66,433.02 7057.03,427.32"/>
    </edge>
    <edge id=":1676261988_0" function="internal">
        <lane id=":1676261988_0_0" index="0" disallow="tram rail_urban rail rail_electric rail_fast ship" speed="6.57" length="7.59" shape="7580.84,92.24 7579.03,91.33 7577.27,91.11 7575.56,91.57 7573.90,92.73"/>
    </edge>
    <edge id=":1676261988_1" function="internal">
        <lane id=":1676261988_1_0" index="0" disallow="tram rail_urban rail rail_electric rail_fast ship" speed="8.73" length="11.62" shape="7580.84,92.24 7578.47,90.18 7576.95,87.83 7576.26,85.19 7576.41,82.24"/>
    </edge>
    <edge id=":1676261988_2" function="internal">
        <lane id=":1676261988_2_0" index="0" disallow="tram rail_urban rail rail_electric rail_fast ship" speed="3.65" length="4.67" shape="7580.84,92.24 7580.30,90.90 7580.42,90.01 7581.20,89.58 7582.65,89.59"/>
    </edge>
    <edge id=":1676261988_3" function="internal">
        <lane id=":1676261988_3_0" index="0" disallow="tram rail_urban rail rail_electric rail_fast ship" speed="7.30" length="7.91" shape="7579.55,82.82 7579.46,84.80 7579.95,86.58 7581.01,88.18 7582.65,89.59"/>
    </edge>
    <edge id=":1676261988_4" function="internal">
        <lane id=":1676261988_4_0" index="0" disallow="tram rail_urban rail rail_electric rail_fast ship" speed="13.06" length="11.69" shape="7579.55,82.82 7578.81,85.97 7577.77,88.35 7576.21,90.45 7573.90,92.73"/>
    </edge>
    <edge id=":1676261988_5" function="internal">
        <lane id=":1676261988_5_0" index="0" disallow="tram rail_urban rail rail_electric rail_fast ship" speed="3.65" length="2.34" shape="7579.55,82.82 7578.55,83.86 7577.69,84.11"/>
    </edge>
    <edge id=":1676261988_9" function="internal">
        <lane id=":1676261988_9_0" index="0" disallow="tram rail_urban rail rail_electric rail_fast ship" speed="3.65" length="2.34" shape="7577.69,84.11 7576.98,83.57 7576.41,82.24"/>
    </edge>
    <edge id=":1676261988_6" function="internal">
        <lane id=":1676261988_6_0" index="0" disallow="tram rail_urban rail rail_electric rail_fast ship" speed="11.91" length="9.66" shape="7571.74,90.37 7573.81,88.41 7575.05,86.85 7575.81,85.01 7576.41,82.24"/>
    </edge>
    <edge id=":1676261988_7" function="internal">
        <lane id=":1676261988_7_0" index="0" disallow="tram rail_urban rail rail_electric rail_fast ship" speed="8.08" length="4.84" shape="7571.74,90.37 7574.35,88.55 7575.95,88.12"/>
    </edge>
    <edge id=":1676261988_8" function="internal">
        <lane id=":1676261988_8_0" index="0" disallow="tram rail_urban rail rail_electric rail_fast ship" speed="3.65" length="2.34" shape="7571.74,90.37 7573.17,90.15 7574.00,90.47"/>
    </edge>
    <edge id=":1676261988_10" function="internal">
        <lane id=":1676261988_10_0" index="0" disallow="tram rail_urban rail rail_electric rail_fast ship" speed="8.08" length="7.09" shape="7575.95,88.12 7577.04,87.82 7579.81,88.17 7582.65,89.59"/>
    </edge>
    <edge id=":1676261988_11" function="internal">
        <lane id=":1676261988_11_0" index="0" disallow="tram rail_urban rail rail_electric rail_fast ship" speed="3.65" length="2.34" shape="7574.00,90.47 7574.25,91.33 7573.90,92.73"/>
    </edge>
    <edge id=":1676262084_0" function="internal">
        <lane id=":1676262084_0_0" index="0" disallow="tram rail_urban rail rail_electric rail_fast ship" speed="6.44" length="9.03" shape="7496.92,89.22 7495.83,86.98 7494.29,85.66 7492.30,85.24 7489.87,85.74"/>
    </edge>
    <edge id=":1676262084_1" function="internal">
        <lane id=":1676262084_1_0" index="0" disallow="tram rail_urban rail rail_electric rail_fast ship" speed="3.65" length="4.67" shape="7496.92,89.22 7497.31,87.83 7497.95,87.21 7498.84,87.34 7499.97,88.24"/>
    </edge>
    <edge id=":1676262084_2" function="internal">
        <lane id=":1676262084_2_0" index="0" disallow="tram rail_urban rail rail_electric rail_fast ship" speed="6.51" length="9.10" shape="7503.57,81.14 7501.34,82.21 7500.00,83.75 7499.54,85.76 7499.97,88.24"/>
    </edge>
    <edge id=":1676262084_3" function="internal">
        <lane id=":1676262084_3_0" index="0" disallow="tram rail_urban rail rail_electric rail_fast ship" speed="27.78" length="14.52" shape="7503.57,81.14 7489.87,85.74"/>
        <lane id=":1676262084_3_1" index="1" disallow="tram rail_urban rail rail_electric rail_fast ship" speed="27.78" length="14.52" shape="7502.61,78.09 7488.79,82.72"/>
    </edge>
    <edge id=":1676262154_0" function="internal">
        <lane id=":1676262154_0_0" index="0" disallow="tram rail_urban rail rail_electric rail_fast ship" speed="3.65" length="4.67" shape="7266.30,113.67 7267.72,113.39 7268.57,113.68 7268.85,114.53 7268.55,115.94"/>
    </edge>
    <edge id=":1676262437_0" function="internal">
        <lane id=":1676262437_0_0" index="0" disallow="tram rail_urban rail rail_electric rail_fast ship" speed="6.15" length="9.06" shape="7331.51,151.29 7329.48,152.82 7328.56,154.58 7328.76,156.55 7330.07,158.73"/>
    </edge>
    <edge id=":1676262437_1" function="internal">
        <lane id=":1676262437_1_0" index="0" disallow="tram rail_urban rail rail_electric rail_fast ship" speed="27.78" length="11.95" shape="7331.51,151.29 7328.51,152.96 7326.51,154.21 7324.66,155.66 7322.10,157.94"/>
        <lane id=":1676262437_1_1" index="1" disallow="tram rail_urban rail rail_electric rail_fast ship" speed="27.78" length="11.95" shape="7329.97,148.49 7326.77,150.26 7324.65,151.59 7322.68,153.14 7319.95,155.57"/>
    </edge>
    <edge id=":1676263220_0" function="internal">
        <lane id=":1676263220_0_0" index="0" disallow="tram rail_urban rail rail_electric rail_fast ship" speed="6.29" length="9.04" shape="7281.91,202.24 7280.10,200.50 7278.21,199.83 7276.25,200.23 7274.21,201.70"/>
    </edge>
    <edge id=":1676263220_1" function="internal">
        <lane id=":1676263220_1_0" index="0" disallow="tram rail_urban rail rail_electric rail_fast ship" speed="3.65" length="4.67" shape="7281.91,202.24 7281.81,200.81 7282.19,200.00 7283.07,199.82 7284.44,200.28"/>
    </edge>
    <edge id=":1676263220_2" function="internal">
        <lane id=":1676263220_2_0" index="0" disallow="tram rail_urban rail rail_electric rail_fast ship" speed="6.85" length="9.52" shape="7284.77,191.79 7283.22,193.71 7282.65,195.76 7283.06,197.95 7284.44,200.28"/>
    </edge>
    <edge id=":1676263220_3" function="internal">
        <lane id=":1676263220_3_0" index="0" disallow="tram rail_urban rail rail_electric rail_fast ship" speed="27.78" length="14.53" shape="7284.77,191.79 7274.21,201.70"/>
        <lane id=":1676263220_3_1" index="1" disallow="tram rail_urban rail rail_electric rail_fast ship" speed="27.78" length="14.53" shape="7282.62,189.42 7271.98,199.40"/>
    </edge>
    <edge id=":1676263431_0" function="internal">
        <lane id=":1676263431_0_0" index="0" disallow="tram rail_urban rail rail_electric rail_fast ship" speed="6.16" length="9.05" shape="7680.49,224.94 7679.06,222.83 7677.35,221.83 7675.37,221.92 7673.12,223.11"/>
    </edge>
    <edge id=":1676263431_1" function="internal">
        <lane id=":1676263431_1_0" index="0" disallow="tram rail_urban rail rail_electric rail_fast ship" speed="9.24" length="14.34" shape="7680.49,224.94 7679.10,221.09 7678.85,217.59 7679.74,214.44 7681.78,211.64"/>
    </edge>
    <edge id=":1676263431_2" function="internal">
        <lane id=":1676263431_2_0" index="0" disallow="tram rail_urban rail rail_electric rail_fast ship" speed="3.65" length="4.67" shape="7680.49,224.94 7680.68,223.51 7681.22,222.80 7682.12,222.81 7683.36,223.53"/>
    </edge>
    <edge id=":1676263431_3" function="internal">
        <lane id=":1676263431_3_0" index="0" disallow="tram rail_urban rail rail_electric rail_fast ship" speed="7.93" length="10.36" shape="7684.05,213.89 7682.65,215.86 7682.07,218.13 7682.31,220.68 7683.36,223.53"/>
    </edge>
    <edge id=":1676263431_4" function="internal">
        <lane id=":1676263431_4_0" index="0" disallow="tram rail_urban rail rail_electric rail_fast ship" speed="13.89" length="14.31" shape="7684.05,213.89 7681.43,216.41 7678.78,218.73 7676.04,220.92 7673.12,223.11"/>
    </edge>
    <edge id=":1676263431_5" function="internal">
        <lane id=":1676263431_5_0" index="0" disallow="tram rail_urban rail rail_electric rail_fast ship" speed="3.65" length="2.34" shape="7684.05,213.89 7682.64,214.18 7681.79,213.90"/>
    </edge>
    <edge id=":1676263431_9" function="internal">
        <lane id=":1676263431_9_0" index="0" disallow="tram rail_urban rail rail_electric rail_fast ship" speed="3.65" length="2.34" shape="7681.79,213.90 7681.50,213.05 7681.78,211.64"/>
    </edge>
    <edge id=":1676263431_6" function="internal">
        <lane id=":1676263431_6_0" index="0" disallow="tram rail_urban rail rail_electric rail_fast ship" speed="13.89" length="13.80" shape="7671.24,220.52 7674.10,218.39 7676.70,216.31 7679.22,214.11 7681.78,211.64"/>
    </edge>
    <edge id=":1676263431_7" function="internal">
        <lane id=":1676263431_7_0" index="0" disallow="tram rail_urban rail rail_electric rail_fast ship" speed="7.72" length="5.76" shape="7671.24,220.52 7674.94,218.56 7676.52,218.49"/>
    </edge>
    <edge id=":1676263431_8" function="internal">
        <lane id=":1676263431_8_0" index="0" disallow="tram rail_urban rail rail_electric rail_fast ship" speed="3.65" length="2.34" shape="7671.24,220.52 7672.68,220.46 7673.47,220.87"/>
    </edge>
    <edge id=":1676263431_10" function="internal">
        <lane id=":1676263431_10_0" index="0" disallow="tram rail_urban rail rail_electric rail_fast ship" speed="7.72" length="9.13" shape="7676.52,218.49 7678.20,218.41 7681.01,220.07 7683.36,223.53"/>
    </edge>
    <edge id=":1676263431_11" function="internal">
        <lane id=":1676263431_11_0" index="0" disallow="tram rail_urban rail rail_electric rail_fast ship" speed="3.65" length="2.34" shape="7673.47,220.87 7673.62,221.75 7673.12,223.11"/>
    </edge>
    <edge id=":1676263846_0" function="internal">
        <lane id=":1676263846_0_0" index="0" disallow="tram rail_urban rail rail_electric rail_fast ship" speed="13.89" length="16.56" shape="7306.85,244.04 7306.22,240.05 7305.38,235.80 7304.10,231.74 7302.19,228.31"/>
    </edge>
    <edge id=":1676263846_1" function="internal">
        <lane id=":1676263846_1_0" index="0" disallow="tram rail_urban rail rail_electric rail_fast ship" speed="7.51" length="20.62" shape="7306.85,244.04 7306.48,237.31 7308.06,234.11 7311.62,234.46 7317.13,238.34"/>
    </edge>
    <edge id=":1676263846_2" function="internal">
        <lane id=":1676263846_2_0" index="0" disallow="tram rail_urban rail rail_electric rail_fast ship" speed="3.65" length="4.67" shape="7306.85,244.04 7307.45,242.73 7308.18,242.21 7309.03,242.48 7310.01,243.54"/>
    </edge>
    <edge id=":1676263846_3" function="internal">
        <lane id=":1676263846_3_0" index="0" disallow="tram rail_urban rail rail_electric rail_fast ship" speed="5.46" length="10.07" shape="7315.03,240.76 7312.34,238.86 7310.60,238.69 7309.83,240.25 7310.01,243.54"/>
    </edge>
    <edge id=":1676263846_4" function="internal">
        <lane id=":1676263846_4_0" index="0" disallow="tram rail_urban rail rail_electric rail_fast ship" speed="13.89" length="17.90" shape="7315.03,240.76 7311.86,237.98 7308.35,234.78 7304.96,231.46 7302.19,228.31"/>
    </edge>
    <edge id=":1676263846_5" function="internal">
        <lane id=":1676263846_5_0" index="0" disallow="tram rail_urban rail rail_electric rail_fast ship" speed="3.65" length="2.34" shape="7315.03,240.76 7314.65,239.36 7314.87,238.50"/>
    </edge>
    <edge id=":1676263846_9" function="internal">
        <lane id=":1676263846_9_0" index="0" disallow="tram rail_urban rail rail_electric rail_fast ship" speed="3.65" length="2.34" shape="7314.87,238.50 7315.70,238.16 7317.13,238.34"/>
    </edge>
    <edge id=":1676263846_6" function="internal">
        <lane id=":1676263846_6_0" index="0" disallow="tram rail_urban rail rail_electric rail_fast ship" speed="13.89" length="17.29" shape="7304.72,226.34 7307.42,229.42 7310.66,232.59 7314.03,235.64 7317.13,238.34"/>
    </edge>
    <edge id=":1676263846_7" function="internal">
        <lane id=":1676263846_7_0" index="0" disallow="tram rail_urban rail rail_electric rail_fast ship" speed="13.89" length="5.64" shape="7304.72,226.34 7306.73,230.00 7307.18,231.40"/>
    </edge>
    <edge id=":1676263846_8" function="internal">
        <lane id=":1676263846_8_0" index="0" disallow="tram rail_urban rail rail_electric rail_fast ship" speed="3.65" length="2.23" shape="7304.72,226.34 7304.82,227.78 7304.48,228.49"/>
    </edge>
    <edge id=":1676263846_10" function="internal">