<?xml version="1.0" encoding="UTF-8"?>

<!-- generated on 01/02/24 17:39:57 by Eclipse SUMO netconvert Version 1.7.0
<configuration xmlns:xsi="http://www.w3.org/2001/XMLSchema-instance" xsi:noNamespaceSchemaLocation="http://sumo.dlr.de/xsd/netconvertConfiguration.xsd">

    <input>
        <osm-files value="downtown.osm"/>
    </input>

    <output>
        <output-file value="downtown.net.xml"/>
    </output>

    <projection>
        <proj.utm value="true"/>
    </projection>

    <processing>
        <geometry.remove value="true"/>
        <roundabouts.guess value="true"/>
    </processing>

    <tls_building>
        <tls.discard-simple value="true"/>
        <tls.join value="true"/>
        <tls.guess-signals value="true"/>
    </tls_building>

    <junctions>
        <junctions.join value="true"/>
    </junctions>

    <report>
        <aggregate-warnings value="5"/>
    </report>

</configuration>
-->

<net version="1.6" junctionCornerDetail="5" limitTurnSpeed="5.50" xmlns:xsi="http://www.w3.org/2001/XMLSchema-instance" xsi:noNamespaceSchemaLocation="http://sumo.dlr.de/xsd/net_file.xsd">

    <location netOffset="-708752.76,-4288339.78" convBoundary="0.00,0.00,8425.50,2541.94" origBoundary="35.401915,38.711982,35.506234,38.741962" projParameter="+proj=utm +zone=36 +ellps=WGS84 +datum=WGS84 +units=m +no_defs"/>

    <type id="highway.bridleway" priority="1" numLanes="1" speed="2.78" allow="pedestrian" oneway="1" width="2.00"/>
    <type id="highway.bus_guideway" priority="1" numLanes="1" speed="27.78" allow="bus" oneway="1"/>
    <type id="highway.cycleway" priority="1" numLanes="1" speed="8.33" allow="bicycle" oneway="0" width="1.00"/>
    <type id="highway.footway" priority="1" numLanes="1" speed="2.78" allow="pedestrian" oneway="1" width="2.00"/>
    <type id="highway.ford" priority="1" numLanes="1" speed="2.78" allow="army" oneway="0"/>
    <type id="highway.living_street" priority="2" numLanes="1" speed="2.78" disallow="tram rail_urban rail rail_electric rail_fast ship" oneway="0"/>
    <type id="highway.motorway" priority="14" numLanes="2" speed="39.44" allow="private emergency authority army vip passenger hov taxi bus coach delivery truck trailer motorcycle evehicle custom1 custom2" oneway="1"/>
    <type id="highway.motorway_link" priority="9" numLanes="1" speed="22.22" allow="private emergency authority army vip passenger hov taxi bus coach delivery truck trailer motorcycle evehicle custom1 custom2" oneway="1"/>
    <type id="highway.path" priority="1" numLanes="1" speed="2.78" allow="pedestrian bicycle" oneway="1" width="2.00"/>
    <type id="highway.pedestrian" priority="1" numLanes="1" speed="2.78" allow="pedestrian" oneway="1" width="2.00"/>
    <type id="highway.primary" priority="12" numLanes="2" speed="27.78" disallow="tram rail_urban rail rail_electric rail_fast ship" oneway="0"/>
    <type id="highway.primary_link" priority="7" numLanes="1" speed="22.22" disallow="tram rail_urban rail rail_electric rail_fast ship" oneway="0"/>
    <type id="highway.raceway" priority="15" numLanes="2" speed="83.33" allow="vip" oneway="0"/>
    <type id="highway.residential" priority="3" numLanes="1" speed="13.89" disallow="tram rail_urban rail rail_electric rail_fast ship" oneway="0"/>
    <type id="highway.secondary" priority="11" numLanes="1" speed="27.78" disallow="tram rail_urban rail rail_electric rail_fast ship" oneway="0"/>
    <type id="highway.secondary_link" priority="6" numLanes="1" speed="22.22" disallow="tram rail_urban rail rail_electric rail_fast ship" oneway="0"/>
    <type id="highway.service" priority="1" numLanes="1" speed="5.56" allow="pedestrian delivery bicycle" oneway="0"/>
    <type id="highway.stairs" priority="1" numLanes="1" speed="1.39" allow="pedestrian" oneway="1" width="2.00"/>
    <type id="highway.step" priority="1" numLanes="1" speed="1.39" allow="pedestrian" oneway="1" width="2.00"/>
    <type id="highway.steps" priority="1" numLanes="1" speed="1.39" allow="pedestrian" oneway="1" width="2.00"/>
    <type id="highway.tertiary" priority="10" numLanes="1" speed="22.22" disallow="tram rail_urban rail rail_electric rail_fast ship" oneway="0"/>
    <type id="highway.tertiary_link" priority="5" numLanes="1" speed="22.22" disallow="tram rail_urban rail rail_electric rail_fast ship" oneway="0"/>
    <type id="highway.track" priority="1" numLanes="1" speed="5.56" allow="pedestrian motorcycle moped bicycle" oneway="0"/>
    <type id="highway.trunk" priority="13" numLanes="2" speed="27.78" disallow="pedestrian bicycle tram rail_urban rail rail_electric rail_fast ship" oneway="0"/>
    <type id="highway.trunk_link" priority="8" numLanes="1" speed="22.22" disallow="pedestrian bicycle tram rail_urban rail rail_electric rail_fast ship" oneway="0"/>
    <type id="highway.unclassified" priority="4" numLanes="1" speed="13.89" disallow="tram rail_urban rail rail_electric rail_fast ship" oneway="0"/>
    <type id="highway.unsurfaced" priority="1" numLanes="1" speed="8.33" disallow="tram rail_urban rail rail_electric rail_fast ship" oneway="0"/>
    <type id="railway.highspeed" priority="21" numLanes="1" speed="69.44" allow="rail_fast" oneway="1"/>
    <type id="railway.light_rail" priority="19" numLanes="1" speed="27.78" allow="rail_urban" oneway="1"/>
    <type id="railway.preserved" priority="16" numLanes="1" speed="27.78" allow="rail" oneway="1"/>
    <type id="railway.rail" priority="20" numLanes="1" speed="44.44" allow="rail" oneway="1"/>
    <type id="railway.subway" priority="18" numLanes="1" speed="27.78" allow="rail_urban" oneway="1"/>
    <type id="railway.tram" priority="17" numLanes="1" speed="13.89" allow="tram" oneway="1"/>

    <edge id=":11077184674_0" function="internal">
        <lane id=":11077184674_0_0" index="0" disallow="pedestrian bicycle tram rail_urban rail rail_electric rail_fast ship" speed="27.78" length="4.33" shape="7594.68,544.37 7598.52,542.35"/>
        <lane id=":11077184674_0_1" index="1" disallow="pedestrian bicycle tram rail_urban rail rail_electric rail_fast ship" speed="27.78" length="4.33" shape="7596.17,547.20 7600.01,545.18"/>
        <lane id=":11077184674_0_2" index="2" disallow="pedestrian bicycle tram rail_urban rail rail_electric rail_fast ship" speed="27.78" length="4.33" shape="7597.66,550.03 7601.50,548.01"/>
    </edge>
    <edge id=":11077184685_0" function="internal">
        <lane id=":11077184685_0_0" index="0" allow="tram" speed="13.89" length="22.11" shape="7254.61,437.12 7275.11,445.41"/>
    </edge>
    <edge id=":11077184685_1" function="internal">
        <lane id=":11077184685_1_0" index="0" allow="tram" speed="13.89" length="22.11" shape="7253.59,440.40 7258.36,441.37 7264.44,442.60 7270.48,443.99 7275.11,445.41"/>
    </edge>
    <edge id=":11077184686_0" function="internal">
        <lane id=":11077184686_0_0" index="0" allow="tram" speed="13.89" length="2.76" shape="7247.76,439.37 7245.19,438.37"/>
    </edge>
    <edge id=":148424403_0" function="internal">
        <lane id=":148424403_0_0" index="0" disallow="pedestrian bicycle tram rail_urban rail rail_electric rail_fast ship" speed="27.78" length="25.10" shape="7075.98,389.45 7069.49,387.77 7064.11,385.65 7058.82,383.19 7052.62,380.51"/>
        <lane id=":148424403_0_1" index="1" disallow="pedestrian bicycle tram rail_urban rail rail_electric rail_fast ship" speed="27.78" length="25.10" shape="7077.24,386.44 7070.74,384.76 7065.32,382.65 7060.00,380.21 7053.80,377.54"/>
    </edge>
    <edge id=":148424403_2" function="internal">
        <lane id=":148424403_2_0" index="0" disallow="pedestrian bicycle tram rail_urban rail rail_electric rail_fast ship" speed="13.52" length="25.40" shape="7077.24,386.44 7071.24,384.47 7066.26,381.09 7062.31,376.30 7059.39,370.09"/>
    </edge>
    <edge id=":148424403_3" function="internal">
        <lane id=":148424403_3_0" index="0" disallow="pedestrian bicycle tram rail_urban rail rail_electric rail_fast ship" speed="10.75" length="20.28" shape="7067.54,392.79 7066.77,389.69 7064.03,386.61 7059.31,383.55 7052.62,380.51"/>
    </edge>
    <edge id=":148424403_4" function="internal">
        <lane id=":148424403_4_0" index="0" disallow="pedestrian bicycle tram rail_urban rail rail_electric rail_fast ship" speed="11.73" length="24.27" shape="7070.73,393.01 7069.90,388.84 7066.80,384.87 7061.43,381.10 7053.80,377.54"/>
    </edge>
    <edge id=":148424403_5" function="internal">
        <lane id=":148424403_5_0" index="0" disallow="pedestrian bicycle tram rail_urban rail rail_electric rail_fast ship" speed="27.78" length="24.94" shape="7070.73,393.01 7069.35,387.01 7065.37,382.82 7060.66,378.73 7057.03,373.03"/>
    </edge>
    <edge id=":1676262154_0" function="internal">
        <lane id=":1676262154_0_0" index="0" disallow="tram rail_urban rail rail_electric rail_fast ship" speed="3.65" length="4.67" shape="7266.30,59.38 7267.72,59.10 7268.57,59.39 7268.85,60.24 7268.55,61.65"/>
    </edge>
    <edge id=":1676263846_0" function="internal">
        <lane id=":1676263846_0_0" index="0" disallow="tram rail_urban rail rail_electric rail_fast ship" speed="3.65" length="4.67" shape="7304.83,177.09 7305.43,175.78 7306.16,175.26 7307.01,175.53 7307.99,176.59"/>
    </edge>
    <edge id=":1676265275_0" function="internal">
        <lane id=":1676265275_0_0" index="0" disallow="tram rail_urban rail rail_electric rail_fast ship" speed="3.65" length="4.67" shape="6859.42,260.82 6860.83,261.10 6861.51,261.68 6861.45,262.58 6860.65,263.78"/>
    </edge>
    <edge id=":1676265436_0" function="internal">
        <lane id=":1676265436_0_0" index="0" disallow="tram rail_urban rail rail_electric rail_fast ship" speed="6.82" length="9.53" shape="6973.79,304.50 6972.47,302.22 6970.76,300.86 6968.65,300.40 6966.14,300.86"/>
    </edge>
    <edge id=":1676265436_1" function="internal">
        <lane id=":1676265436_1_0" index="0" disallow="tram rail_urban rail rail_electric rail_fast ship" speed="13.89" length="14.71" shape="6973.79,304.50 6968.60,290.73"/>
    </edge>
    <edge id=":1676265436_2" function="internal">
        <lane id=":1676265436_2_0" index="0" disallow="tram rail_urban rail rail_electric rail_fast ship" speed="7.89" length="14.44" shape="6973.79,304.50 6972.82,300.62 6973.36,297.44 6975.41,294.95 6978.97,293.15"/>
    </edge>
    <edge id=":1676265436_3" function="internal">
        <lane id=":1676265436_3_0" index="0" disallow="tram rail_urban rail rail_electric rail_fast ship" speed="3.65" length="4.67" shape="6973.79,304.50 6974.08,303.08 6974.67,302.41 6975.56,302.48 6976.75,303.28"/>
    </edge>
    <edge id=":1676265436_4" function="internal">
        <lane id=":1676265436_4_0" index="0" disallow="tram rail_urban rail rail_electric rail_fast ship" speed="6.37" length="9.04" shape="6979.99,296.18 6977.76,297.31 6976.48,298.87 6976.14,300.86 6976.75,303.28"/>
    </edge>
    <edge id=":1676265436_5" function="internal">
        <lane id=":1676265436_5_0" index="0" disallow="tram rail_urban rail rail_electric rail_fast ship" speed="13.89" length="14.63" shape="6979.99,296.18 6966.14,300.86"/>
    </edge>
    <edge id=":1676265436_6" function="internal">
        <lane id=":1676265436_6_0" index="0" disallow="tram rail_urban rail rail_electric rail_fast ship" speed="8.07" length="6.05" shape="6979.99,296.18 6976.08,296.92 6974.05,296.50"/>
    </edge>
    <edge id=":1676265436_7" function="internal">
        <lane id=":1676265436_7_0" index="0" disallow="tram rail_urban rail rail_electric rail_fast ship" speed="3.65" length="2.34" shape="6979.99,296.18 6978.60,295.80 6977.97,295.17"/>
    </edge>
    <edge id=":1676265436_16" function="internal">
        <lane id=":1676265436_16_0" index="0" disallow="tram rail_urban rail rail_electric rail_fast ship" speed="8.07" length="8.33" shape="6974.05,296.50 6972.88,296.26 6970.39,294.20 6968.60,290.73"/>
    </edge>
    <edge id=":1676265436_17" function="internal">
        <lane id=":1676265436_17_0" index="0" disallow="tram rail_urban rail rail_electric rail_fast ship" speed="3.65" length="2.34" shape="6977.97,295.17 6978.09,294.29 6978.97,293.15"/>
    </edge>
    <edge id=":1676265436_8" function="internal">
        <lane id=":1676265436_8_0" index="0" disallow="tram rail_urban rail rail_electric rail_fast ship" speed="6.59" length="9.25" shape="6971.62,289.69 6972.77,291.90 6974.38,293.21 6976.44,293.63 6978.97,293.15"/>
    </edge>
    <edge id=":1676265436_9" function="internal">
        <lane id=":1676265436_9_0" index="0" disallow="tram rail_urban rail rail_electric rail_fast ship" speed="13.89" length="14.53" shape="6971.62,289.69 6976.75,303.28"/>
    </edge>
    <edge id=":1676265436_10" function="internal">
        <lane id=":1676265436_10_0" index="0" disallow="tram rail_urban rail rail_electric rail_fast ship" speed="7.99" length="14.21" shape="6971.62,289.69 6972.36,293.52 6971.69,296.66 6969.62,299.10 6966.14,300.86"/>
    </edge>
    <edge id=":1676265436_11" function="internal">
        <lane id=":1676265436_11_0" index="0" disallow="tram rail_urban rail rail_electric rail_fast ship" speed="3.65" length="4.67" shape="6971.62,289.69 6971.26,291.08 6970.63,291.72 6969.74,291.61 6968.60,290.73"/>
    </edge>
    <edge id=":1676265436_12" function="internal">
        <lane id=":1676265436_12_0" index="0" disallow="tram rail_urban rail rail_electric rail_fast ship" speed="6.49" length="9.03" shape="6965.11,297.83 6967.32,296.72 6968.64,295.16 6969.06,293.16 6968.60,290.73"/>
    </edge>
    <edge id=":1676265436_13" function="internal">
        <lane id=":1676265436_13_0" index="0" disallow="tram rail_urban rail rail_electric rail_fast ship" speed="13.89" length="14.63" shape="6965.11,297.83 6978.97,293.15"/>
    </edge>
    <edge id=":1676265436_14" function="internal">
        <lane id=":1676265436_14_0" index="0" disallow="tram rail_urban rail rail_electric rail_fast ship" speed="8.26" length="5.95" shape="6965.11,297.83 6968.94,297.13 6970.95,297.55"/>
    </edge>
    <edge id=":1676265436_15" function="internal">
        <lane id=":1676265436_15_0" index="0" disallow="tram rail_urban rail rail_electric rail_fast ship" speed="3.65" length="2.34" shape="6965.11,297.83 6966.51,298.21 6967.14,298.84"/>
    </edge>
    <edge id=":1676265436_18" function="internal">
        <lane id=":1676265436_18_0" index="0" disallow="tram rail_urban rail rail_electric rail_fast ship" speed="8.26" length="8.51" shape="6970.95,297.55 6972.15,297.80 6974.76,299.85 6976.75,303.28"/>
    </edge>
    <edge id=":1676265436_19" function="internal">
        <lane id=":1676265436_19_0" index="0" disallow="tram rail_urban rail rail_electric rail_fast ship" speed="3.65" length="2.34" shape="6967.14,298.84 6967.02,299.72 6966.14,300.86"/>
    </edge>
    <edge id=":1676265557_0" function="internal">
        <lane id=":1676265557_0_0" index="0" disallow="tram rail_urban rail rail_electric rail_fast ship" speed="6.71" length="9.42" shape="7125.10,313.16 7122.49,312.62 7120.33,312.98 7118.65,314.23 7117.42,316.37"/>
    </edge>
    <edge id=":1676265557_1" function="internal">
        <lane id=":1676265557_1_0" index="0" disallow="tram rail_urban rail rail_electric rail_fast ship" speed="3.65" length="4.67" shape="7125.10,313.16 7124.23,312.01 7124.11,311.12 7124.75,310.50 7126.15,310.13"/>
    </edge>
    <edge id=":1676265557_2" function="internal">
        <lane id=":1676265557_2_0" index="0" disallow="tram rail_urban rail rail_electric rail_fast ship" speed="6.28" length="9.04" shape="7123.15,303.02 7122.41,305.42 7122.66,307.41 7123.91,308.98 7126.15,310.13"/>
    </edge>
    <edge id=":1676265557_3" function="internal">
        <lane id=":1676265557_3_0" index="0" disallow="tram rail_urban rail rail_electric rail_fast ship" speed="27.78" length="14.66" shape="7123.15,303.02 7117.42,316.37"/>
        <lane id=":1676265557_3_1" index="1" disallow="tram rail_urban rail rail_electric rail_fast ship" speed="27.78" length="14.66" shape="7120.25,301.65 7114.43,315.23"/>
    </edge>
    <edge id=":1676265587_0" function="internal">
        <lane id=":1676265587_0_0" index="0" disallow="tram rail_urban rail rail_electric rail_fast ship" speed="13.89" length="14.39" shape="7636.45,333.51 7622.16,335.17"/>
    </edge>
    <edge id=":1676265587_1" function="internal">
        <lane id=":1676265587_1_0" index="0" disallow="tram rail_urban rail rail_electric rail_fast ship" speed="8.84" length="5.46" shape="7636.45,333.51 7632.86,333.31 7631.17,332.52"/>
    </edge>
    <edge id=":1676265587_2" function="internal">
        <lane id=":1676265587_2_0" index="0" disallow="tram rail_urban rail rail_electric rail_fast ship" speed="3.65" length="2.34" shape="7636.45,333.51 7635.18,332.84 7634.70,332.08"/>
    </edge>
    <edge id=":1676265587_9" function="internal">
        <lane id=":1676265587_9_0" index="0" disallow="tram rail_urban rail rail_electric rail_fast ship" speed="8.84" length="9.06" shape="7631.17,332.52 7629.88,331.92 7627.51,329.34 7625.75,325.59"/>
    </edge>
    <edge id=":1676265587_10" function="internal">
        <lane id=":1676265587_10_0" index="0" disallow="tram rail_urban rail rail_electric rail_fast ship" speed="3.65" length="2.34" shape="7634.70,332.08 7635.02,331.24 7636.14,330.33"/>
    </edge>
    <edge id=":1676265587_3" function="internal">
        <lane id=":1676265587_3_0" index="0" disallow="tram rail_urban rail rail_electric rail_fast ship" speed="7.49" length="10.18" shape="7628.78,324.57 7630.03,327.28 7631.67,329.15 7633.71,330.16 7636.14,330.33"/>
    </edge>
    <edge id=":1676265587_4" function="internal">
        <lane id=":1676265587_4_0" index="0" disallow="tram rail_urban rail rail_electric rail_fast ship" speed="7.70" length="14.99" shape="7628.78,324.57 7629.54,328.73 7628.69,331.88 7626.23,334.03 7622.16,335.17"/>
    </edge>
    <edge id=":1676265587_5" function="internal">
        <lane id=":1676265587_5_0" index="0" disallow="tram rail_urban rail rail_electric rail_fast ship" speed="3.65" length="4.67" shape="7628.78,324.57 7628.40,325.96 7627.77,326.60 7626.89,326.47 7625.75,325.59"/>
    </edge>
    <edge id=":1676265587_6" function="internal">
        <lane id=":1676265587_6_0" index="0" disallow="tram rail_urban rail rail_electric rail_fast ship" speed="6.13" length="9.06" shape="7621.74,332.00 7624.20,331.31 7625.69,330.01 7626.21,328.10 7625.75,325.59"/>
    </edge>
    <edge id=":1676265587_7" function="internal">
        <lane id=":1676265587_7_0" index="0" disallow="tram rail_urban rail rail_electric rail_fast ship" speed="13.89" length="14.49" shape="7621.74,332.00 7636.14,330.33"/>
    </edge>
    <edge id=":1676265587_8" function="internal">
        <lane id=":1676265587_8_0" index="0" disallow="tram rail_urban rail rail_electric rail_fast ship" speed="3.65" length="2.34" shape="7621.74,332.00 7623.04,332.63 7623.54,333.37"/>
    </edge>
    <edge id=":1676265587_11" function="internal">
        <lane id=":1676265587_11_0" index="0" disallow="tram rail_urban rail rail_electric rail_fast ship" speed="3.65" length="2.34" shape="7623.54,333.37 7623.24,334.22 7622.16,335.17"/>
    </edge>
    <edge id=":1676265606_0" function="internal">
        <lane id=":1676265606_0_0" index="0" disallow="tram rail_urban rail rail_electric rail_fast ship" speed="7.32" length="9.80" shape="7153.10,321.90 7150.68,321.78 7148.59,322.51 7146.83,324.08 7145.40,326.49"/>
    </edge>
    <edge id=":1676265606_1" function="internal">
        <lane id=":1676265606_1_0" index="0" disallow="tram rail_urban rail rail_electric rail_fast ship" speed="13.89" length="14.25" shape="7153.10,321.90 7149.56,321.10 7146.18,320.21 7142.83,319.21 7139.38,318.07"/>
    </edge>
    <edge id=":1676265606_2" function="internal">
        <lane id=":1676265606_2_0" index="0" disallow="tram rail_urban rail rail_electric rail_fast ship" speed="3.65" length="2.34" shape="7153.10,321.90 7152.09,320.87 7151.86,320.00"/>
    </edge>
    <edge id=":1676265606_9" function="internal">
        <lane id=":1676265606_9_0" index="0" disallow="tram rail_urban rail rail_electric rail_fast ship" speed="3.65" length="2.34" shape="7151.86,320.00 7152.41,319.30 7153.75,318.76"/>
    </edge>
    <edge id=":1676265606_3" function="internal">
        <lane id=":1676265606_3_0" index="0" disallow="tram rail_urban rail rail_electric rail_fast ship" speed="13.89" length="13.85" shape="7140.42,315.04 7143.81,316.17 7147.02,317.13 7150.27,317.98 7153.75,318.76"/>
    </edge>
    <edge id=":1676265606_4" function="internal">
        <lane id=":1676265606_4_0" index="0" disallow="tram rail_urban rail rail_electric rail_fast ship" speed="7.85" length="5.73" shape="7140.42,315.04 7144.01,316.89 7145.07,318.21"/>
    </edge>
    <edge id=":1676265606_5" function="internal">
        <lane id=":1676265606_5_0" index="0" disallow="tram rail_urban rail rail_electric rail_fast ship" speed="3.65" length="2.34" shape="7140.42,315.04 7141.29,316.19 7141.41,317.08"/>
    </edge>
    <edge id=":1676265606_10" function="internal">
        <lane id=":1676265606_10_0" index="0" disallow="tram rail_urban rail rail_electric rail_fast ship" speed="7.85" length="8.80" shape="7145.07,318.21 7146.03,319.41 7146.50,322.61 7145.40,326.49"/>
    </edge>
    <edge id=":1676265606_11" function="internal">
        <lane id=":1676265606_11_0" index="0" disallow="tram rail_urban rail rail_electric rail_fast ship" speed="3.65" length="2.34" shape="7141.41,317.08 7140.77,317.70 7139.38,318.07"/>
    </edge>
    <edge id=":1676265606_6" function="internal">
        <lane id=":1676265606_6_0" index="0" disallow="tram rail_urban rail rail_electric rail_fast ship" speed="6.33" length="9.04" shape="7142.48,325.19 7143.16,322.78 7142.87,320.78 7141.61,319.22 7139.38,318.07"/>
    </edge>
    <edge id=":1676265606_7" function="internal">
        <lane id=":1676265606_7_0" index="0" disallow="tram rail_urban rail rail_electric rail_fast ship" speed="8.70" length="14.19" shape="7142.48,325.19 7144.52,321.78 7147.08,319.57 7150.16,318.57 7153.75,318.76"/>
    </edge>
    <edge id=":1676265606_8" function="internal">
        <lane id=":1676265606_8_0" index="0" disallow="tram rail_urban rail rail_electric rail_fast ship" speed="3.65" length="4.67" shape="7142.48,325.19 7143.70,324.42 7144.59,324.38 7145.16,325.07 7145.40,326.49"/>
    </edge>
    <edge id=":1676265624_0" function="internal">
        <lane id=":1676265624_0_0" index="0" disallow="tram rail_urban rail rail_electric rail_fast ship" speed="6.52" length="9.00" shape="6918.77,322.80 6917.63,320.60 6916.07,319.29 6914.08,318.86 6911.67,319.31"/>
    </edge>
    <edge id=":1676265624_1" function="internal">
        <lane id=":1676265624_1_0" index="0" disallow="tram rail_urban rail rail_electric rail_fast ship" speed="7.29" length="11.69" shape="6918.77,322.80 6917.83,319.06 6917.92,316.13 6919.04,314.01 6921.19,312.71"/>
    </edge>
    <edge id=":1676265624_2" function="internal">
        <lane id=":1676265624_2_0" index="0" disallow="tram rail_urban rail rail_electric rail_fast ship" speed="13.89" length="11.13" shape="6922.21,315.74 6911.67,319.31"/>
    </edge>
    <edge id=":1676265624_3" function="internal">
        <lane id=":1676265624_3_0" index="0" disallow="tram rail_urban rail rail_electric rail_fast ship" speed="3.65" length="2.34" shape="6922.21,315.74 6920.82,315.37 6920.18,314.74"/>
    </edge>
    <edge id=":1676265624_6" function="internal">
        <lane id=":1676265624_6_0" index="0" disallow="tram rail_urban rail rail_electric rail_fast ship" speed="3.65" length="2.34" shape="6920.18,314.74 6920.31,313.85 6921.19,312.71"/>
    </edge>
    <edge id=":1676265624_4" function="internal">
        <lane id=":1676265624_4_0" index="0" disallow="tram rail_urban rail rail_electric rail_fast ship" speed="13.89" length="11.14" shape="6910.64,316.28 6921.19,312.71"/>
    </edge>
    <edge id=":1676265624_5" function="internal">
        <lane id=":1676265624_5_0" index="0" disallow="tram rail_urban rail rail_electric rail_fast ship" speed="3.65" length="2.34" shape="6910.64,316.28 6912.03,316.66 6912.67,317.28"/>
    </edge>
    <edge id=":1676265624_7" function="internal">
        <lane id=":1676265624_7_0" index="0" disallow="tram rail_urban rail rail_electric rail_fast ship" speed="3.65" length="2.34" shape="6912.67,317.28 6912.55,318.17 6911.67,319.31"/>
    </edge>
    <edge id=":1676265638_0" function="internal">
        <lane id=":1676265638_0_0" index="0" disallow="tram rail_urban rail rail_electric rail_fast ship" speed="6.60" length="9.25" shape="6985.07,333.08 6983.93,330.89 6982.32,329.58 6980.24,329.17 6977.70,329.64"/>
    </edge>
    <edge id=":1676265638_1" function="internal">
        <lane id=":1676265638_1_0" index="0" disallow="tram rail_urban rail rail_electric rail_fast ship" speed="13.89" length="14.49" shape="6985.07,333.08 6979.95,319.52"/>
    </edge>
    <edge id=":1676265638_2" function="internal">
        <lane id=":1676265638_2_0" index="0" disallow="tram rail_urban rail rail_electric rail_fast ship" speed="3.65" length="2.34" shape="6985.07,333.08 6985.43,331.69 6986.06,331.05"/>
    </edge>
    <edge id=":1676265638_9" function="internal">
        <lane id=":1676265638_9_0" index="0" disallow="tram rail_urban rail rail_electric rail_fast ship" speed="3.65" length="2.34" shape="6986.06,331.05 6986.95,331.17 6988.09,332.04"/>
    </edge>
    <edge id=":1676265638_3" function="internal">
        <lane id=":1676265638_3_0" index="0" disallow="tram rail_urban rail rail_electric rail_fast ship" speed="13.89" length="14.68" shape="6982.91,318.31 6988.09,332.04"/>
    </edge>
    <edge id=":1676265638_4" function="internal">
        <lane id=":1676265638_4_0" index="0" disallow="tram rail_urban rail rail_electric rail_fast ship" speed="7.88" length="6.26" shape="6982.91,318.31 6983.89,322.19 6983.51,324.41"/>
    </edge>
    <edge id=":1676265638_5" function="internal">
        <lane id=":1676265638_5_0" index="0" disallow="tram rail_urban rail rail_electric rail_fast ship" speed="3.65" length="2.34" shape="6982.91,318.31 6982.63,319.72 6982.04,320.39"/>
    </edge>
    <edge id=":1676265638_10" function="internal">
        <lane id=":1676265638_10_0" index="0" disallow="tram rail_urban rail rail_electric rail_fast ship" speed="7.88" length="8.20" shape="6983.51,324.41 6983.34,325.37 6981.28,327.86 6977.70,329.64"/>
    </edge>
    <edge id=":1676265638_11" function="internal">
        <lane id=":1676265638_11_0" index="0" disallow="tram rail_urban rail rail_electric rail_fast ship" speed="3.65" length="2.34" shape="6982.04,320.39 6981.15,320.33 6979.95,319.52"/>
    </edge>
    <edge id=":1676265638_6" function="internal">
        <lane id=":1676265638_6_0" index="0" disallow="tram rail_urban rail rail_electric rail_fast ship" speed="6.36" length="9.04" shape="6976.69,326.61 6978.93,325.49 6980.22,323.94 6980.56,321.95 6979.95,319.52"/>
    </edge>
    <edge id=":1676265638_7" function="internal">
        <lane id=":1676265638_7_0" index="0" disallow="tram rail_urban rail rail_electric rail_fast ship" speed="8.08" length="14.36" shape="6976.69,326.61 6980.61,325.88 6983.82,326.55 6986.31,328.60 6988.09,332.04"/>
    </edge>
    <edge id=":1676265638_8" function="internal">
        <lane id=":1676265638_8_0" index="0" disallow="tram rail_urban rail rail_electric rail_fast ship" speed="3.65" length="4.67" shape="6976.69,326.61 6978.08,326.99 6978.72,327.62 6978.59,328.51 6977.70,329.64"/>
    </edge>
    <edge id=":1676265725_0" function="internal">
        <lane id=":1676265725_0_0" index="0" disallow="tram rail_urban rail rail_electric rail_fast ship" speed="13.89" length="19.20" shape="7209.53,336.61 7205.48,334.87 7200.67,332.89 7195.81,331.08 7191.58,329.88"/>
    </edge>
    <edge id=":1676265725_1" function="internal">
        <lane id=":1676265725_1_0" index="0" disallow="tram rail_urban rail rail_electric rail_fast ship" speed="6.43" length="4.56" shape="7209.53,336.61 7206.40,333.92 7206.31,333.50"/>
    </edge>
    <edge id=":1676265725_2" function="internal">
        <lane id=":1676265725_2_0" index="0" disallow="tram rail_urban rail rail_electric rail_fast ship" speed="3.65" length="2.34" shape="7209.53,336.61 7208.75,335.41 7208.70,334.51"/>
    </edge>
    <edge id=":1676265725_9" function="internal">
        <lane id=":1676265725_9_0" index="0" disallow="tram rail_urban rail rail_electric rail_fast ship" speed="6.43" length="10.94" shape="7206.31,333.50 7205.68,330.37 7207.23,327.10 7210.92,325.24"/>
    </edge>
    <edge id=":1676265725_10" function="internal">
        <lane id=":1676265725_10_0" index="0" disallow="tram rail_urban rail rail_electric rail_fast ship" speed="3.65" length="2.34" shape="7208.70,334.51 7209.38,333.94 7210.80,333.67"/>
    </edge>
    <edge id=":1676265725_3" function="internal">
        <lane id=":1676265725_3_0" index="0" disallow="tram rail_urban rail rail_electric rail_fast ship" speed="5.49" length="10.83" shape="7211.44,328.40 7207.89,329.31 7206.60,330.49 7207.57,331.94 7210.80,333.67"/>
    </edge>
    <edge id=":1676265725_4" function="internal">
        <lane id=":1676265725_4_0" index="0" disallow="tram rail_urban rail rail_electric rail_fast ship" speed="13.89" length="19.98" shape="7211.44,328.40 7206.94,329.12 7201.50,329.82 7196.06,330.19 7191.58,329.88"/>
    </edge>
    <edge id=":1676265725_5" function="internal">
        <lane id=":1676265725_5_0" index="0" disallow="tram rail_urban rail rail_electric rail_fast ship" speed="3.65" length="4.67" shape="7211.44,328.40 7210.13,327.81 7209.60,327.08 7209.87,326.23 7210.92,325.24"/>
    </edge>
    <edge id=":1676265725_6" function="internal">
        <lane id=":1676265725_6_0" index="0" disallow="tram rail_urban rail rail_electric rail_fast ship" speed="13.89" length="18.82" shape="7192.23,326.74 7196.53,327.05 7201.56,326.68 7206.61,325.96 7210.92,325.24"/>
    </edge>
    <edge id=":1676265725_7" function="internal">