<?xml version="1.0" encoding="UTF-8"?>

<!-- generated on 01/02/24 17:34:44 by Eclipse SUMO duarouter Version 1.7.0
<configuration xmlns:xsi="http://www.w3.org/2001/XMLSchema-instance" xsi:noNamespaceSchemaLocation="http://sumo.dlr.de/xsd/duarouterConfiguration.xsd">

    <input>
        <net-file value="downtown.net.xml"/>
        <route-files value="downtown.trips.xml"/>
    </input>

    <output>
        <output-file value="downtown.rou.xml"/>
        <alternatives-output value="downtown.rou.alt.xml"/>
    </output>

    <report>
        <ignore-errors value="true"/>
    </report>

</configuration>
-->

<routes xmlns:xsi="http://www.w3.org/2001/XMLSchema-instance" xsi:noNamespaceSchemaLocation="http://sumo.dlr.de/xsd/routes_file.xsd">
    <vehicle id="1" depart="1.00">
        <route edges="-792840705 792839459#3 792839459#4 792839460#5 -792839454 792839455#0 792839455#1 792839469#4 792839469#5 792839452 -792839466#2 -792839466#1 -792839465"/>
    </vehicle>
    <vehicle id="2" depart="2.00">
        <route edges="792604097 792603040#1 792603042#0 792603042#1 -792603041#0 788112907#0 788112907#1 788112907#2 155214076#0 155214076#1 155213990#1 788112302#0"/>
    </vehicle>
    <vehicle id="6" depart="6.00">
        <route edges="-155218590#0 792839460#3 792839460#4 792839460#5 -792839454 792839455#0 -792839462#2"/>
    </vehicle>
    <vehicle id="21" depart="21.00">
        <route edges="-792839466#2 792839453 -792839469#4 -792839469#3 -792839463#2 -792839462#1 -792839462#0 -792840706 -798296562#0"/>
    </vehicle>
    <vehicle id="26" depart="26.00">
        <route edges="-792839469#6 -792839469#5 -792839469#4 792839469#4"/>
    </vehicle>
    <vehicle id="31" depart="31.00">
        <route edges="253170361 -253170361 -211238700#0 211238703 183710406#4 183710406#5 183710406#6 788112907#0"/>
    </vehicle>
    <vehicle id="32" depart="32.00">
        <route edges="792839460#5 -792839454 -792839456 792839456"/>
    </vehicle>
    <vehicle id="35" depart="35.00">
        <route edges="-792839464 792839469#2 792839469#3 792839469#4 792839469#5"/>
    </vehicle>
    <vehicle id="39" depart="39.00">
        <route edges="-792839469#5 -792839469#4 -792839469#3 -792839469#2 -792839469#1 -792839469#0"/>
    </vehicle>
    <vehicle id="47" depart="47.00">
        <route edges="-211238700#2 -211238700#0 211238703 183710406#4 183710406#5 183710406#6 788112907#0 788112907#1 788112907#2 155214076#0 155214076#1"/>
    </vehicle>
    <vehicle id="55" depart="55.00">
        <route edges="792839463#1 792839462#2 792839455#1 -792839469#3"/>
    </vehicle>
    <vehicle id="57" depart="57.00">
        <route edges="792839469#0 792839469#1 792839469#2 -792839463#2 792839462#2"/>
    </vehicle>
    <vehicle id="58" depart="58.00">
        <route edges="-798643663 -211238719#0 183710406#2 183710406#3 183710406#4 183710406#5 183710406#6 788112907#0 788112907#1 788112907#2 787957095#0"/>
    </vehicle>
    <vehicle id="64" depart="64.00">
        <route edges="792839463#2 -792839463#2 -792839463#1 -792839463#0 792839459#4 792839460#5 792839460#0 792839460#1 792839460#2"/>
    </vehicle>
    <vehicle id="66" depart="66.00">
        <route edges="792839463#2 792839469#3 792839469#4 792839469#5 792839469#6"/>
    </vehicle>
    <vehicle id="67" depart="67.00">
        <route edges="-211238721#1 -211238721#0 -211238670#0 211238670#0"/>
    </vehicle>
    <vehicle id="70" depart="70.00">
        <route edges="211238700#0 253170361 211238943#1 211238943#2"/>
    </vehicle>
    <vehicle id="71" depart="71.00">
        <route edges="-792839469#5 -792839469#4 -792839469#3 -792839463#2 -792839463#1 -792839463#0 792839463#0"/>
    </vehicle>
    <vehicle id="73" depart="73.00">
        <route edges="253169363#0 253169363#1 253169363#3 183710406#3 183710406#4 183710406#5 183710406#6 792603041#0 -792603042#1 792603042#1"/>
    </vehicle>
    <vehicle id="76" depart="76.00">
        <route edges="183710406#4 211238943#0 -253170361 792604096 253169363#1 -798643663 -211238719#0 211238719#0"/>
    </vehicle>
    <vehicle id="79" depart="79.00">
        <route edges="-792839466#3 -792839466#2 792839453 -792839469#4 -792839464"/>
    </vehicle>
    <vehicle id="80" depart="80.00">
        <route edges="-211238719#0 183710406#2 183710406#3 183710406#4 183710406#5 183710406#6 788112907#0 788112907#1 788112907#2 787957095#0 787957095#1 787957095#2 787957085"/>
    </vehicle>
    <vehicle id="81" depart="81.00">
        <route edges="-792839466#3 -792839466#2 792839466#2"/>
    </vehicle>
    <vehicle id="83" depart="83.00">
        <route edges="-792839469#0 792839469#0 792839465 792839466#1 792839466#2 792839466#3 788112301#3"/>
    </vehicle>
    <vehicle id="87" depart="87.00">
        <route edges="792839459#3 792839463#0 792839463#1 -792839462#1"/>
    </vehicle>
    <vehicle id="89" depart="89.00">
        <route edges="183710406#1 183710406#2 183710406#3 183710406#4 183710406#5"/>
    </vehicle>
    <vehicle id="90" depart="90.00">
        <route edges="792604096 253169363#1 253169363#3 183710406#3 183710406#4 183710406#5 183710406#6 788112907#0 788112907#1 788112907#2 155214076#0 155214076#1 155213990#1 788112302#0"/>
    </vehicle>
    <vehicle id="91" depart="91.00">
        <route edges="849473589 183710406#0 183710406#1 183710406#2 -253169363#3 -253167911"/>
    </vehicle>
    <vehicle id="93" depart="93.00">
        <route edges="792839462#1 792839463#2 -792839469#2 -792839469#1"/>
    </vehicle>
    <vehicle id="96" depart="96.00">
        <route edges="-792839469#2 -792839469#1 792839469#1"/>
    </vehicle>
    <vehicle id="101" depart="101.00">
        <route edges="792839461 792839462#0 792839462#1 792839462#2 -792839455#0"/>
    </vehicle>
    <vehicle id="105" depart="105.00">
        <route edges="-792839469#5 -792839469#4 -792839455#1 -792839455#0 792839454 792839460#0 792839460#1 792839460#2 792839460#3 792839458#0"/>
    </vehicle>
    <vehicle id="108" depart="108.00">
        <route edges="253170361 -253170361 -211238700#0 211238703 183710406#4 183710406#5 183710406#6 792603041#0 792603041#1"/>
    </vehicle>
    <vehicle id="109" depart="109.00">
        <route edges="-792839455#0 792839454 792839460#0 792839460#1 792839460#2 155218590#0 -798296568"/>
    </vehicle>
    <vehicle id="110" depart="110.00">
        <route edges="798641090 -798641090 -211238700#2 253170361"/>
    </vehicle>
    <vehicle id="114" depart="114.00">
        <route edges="-792839455#0 792839454 792839460#0 792839460#1 792839460#2 792839460#3 792839458#0 792839458#1 792839458#2 798296562#0 792840706"/>
    </vehicle>
    <vehicle id="118" depart="118.00">
        <route edges="792839465 155213926#2 792839469#0 -792839469#0"/>
    </vehicle>
    <vehicle id="126" depart="126.00">
        <route edges="-211238719#0 183710406#2 183710406#3 183710406#4"/>
    </vehicle>
    <vehicle id="127" depart="127.00">
        <route edges="854192073#1"/>
    </vehicle>
    <vehicle id="129" depart="129.00">
        <route edges="-792839469#5 -792839469#4 -792839469#3 792839469#3"/>
    </vehicle>
    <vehicle id="130" depart="130.00">
        <route edges="792839463#2 -792839463#2 -792839463#1 792839463#1"/>
    </vehicle>
    <vehicle id="135" depart="135.00">
        <route edges="792839460#0 792839460#1 792839460#2 155218590#0 -798296568"/>
    </vehicle>
    <vehicle id="136" depart="136.00">
        <route edges="788112301#3 155213926#1 155213926#2 792839469#0 792839469#1 792839469#2 792839469#3 792839469#4"/>
    </vehicle>
    <vehicle id="137" depart="137.00">
        <route edges="-792603042#1 -792603042#0 261081394#2 -211238685#0 -211238700#2 792604096 253169363#1 253169363#3 -253169363#3"/>
    </vehicle>
    <vehicle id="138" depart="138.00">
        <route edges="-253170361 253170361 211238943#1 211238943#2"/>
    </vehicle>
    <vehicle id="143" depart="143.00">
        <route edges="792839461 -792839461 792839459#2 792839459#3 792839459#4 792839460#5 792839460#0 792839460#1 792839460#2 792839460#3 792839458#0 792839458#1 -253027477"/>
    </vehicle>
    <vehicle id="152" depart="152.00">
        <route edges="-792604097 792603042#1 -792603041#0"/>
    </vehicle>
    <vehicle id="154" depart="154.00">
        <route edges="792839459#1 792839459#2 792840705 792839462#1"/>
    </vehicle>
    <vehicle id="155" depart="155.00">
        <route edges="792839466#1 792839453 -792839469#4 -792839469#3 -792839463#2"/>
    </vehicle>
    <vehicle id="157" depart="157.00">
        <route edges="792839458#0 792839458#1 792839458#2 792839459#1 792839459#2 792839459#3 792839463#0 792839463#1 792839463#2"/>
    </vehicle>
    <vehicle id="158" depart="158.00">
        <route edges="155214119#2 155213990#1 533594356"/>
    </vehicle>
    <vehicle id="159" depart="159.00">
        <route edges="-792839455#0 792839455#0 792839455#1 -792839464 792839469#2"/>
    </vehicle>
    <vehicle id="161" depart="161.00">
        <route edges="792839459#4 792839460#5 -792839454 -792839456 792839463#1"/>
    </vehicle>
    <vehicle id="163" depart="163.00">
        <route edges="155213926#1 155213926#2 792839469#0 792839469#1 792839469#2 792839469#3"/>
    </vehicle>
    <vehicle id="164" depart="164.00">
        <route edges="792839459#2 792840705 792839462#1"/>
    </vehicle>
    <vehicle id="165" depart="165.00">
        <route edges="792839459#4 792839460#5 -792839454 792839455#0 792839455#1 792839469#4 -792839469#4"/>
    </vehicle>
    <vehicle id="167" depart="167.00">
        <route edges="792839463#0 792839463#1 -792839462#1 -792839462#0 792839462#0"/>
    </vehicle>
    <vehicle id="168" depart="168.00">
        <route edges="-792839466#1 155213926#2 792839469#0 792839469#1 792839469#2 -792839463#2 -792839463#1 -792839463#0 792839459#4"/>
    </vehicle>
    <vehicle id="170" depart="170.00">
        <route edges="792839459#1 792839459#2 792839459#3 792839459#4 792839460#5 -792839454 792839455#0 792839455#1 792839469#4 792839469#5 792839452 -792839466#2 -792839466#1"/>
    </vehicle>
    <vehicle id="171" depart="171.00">
        <route edges="-155218590#0 792839460#3 792839460#4 792839460#5 -792839454 792839455#0 -792839462#2 -792839462#1"/>
    </vehicle>
    <vehicle id="173" depart="173.00">
        <route edges="798296568 -155218590#0 792839460#3 792839460#4 792839460#5 -792839454 792839455#0 -792839462#2 -792839462#1 -792840705"/>
    </vehicle>
    <vehicle id="178" depart="178.00">
        <route edges="798296565 792839458#1 792839458#2 792839459#1 792839459#2 792839459#3 792839459#4 792839460#5 -792839454 792839455#0 792839455#1 792839469#4 -792839469#4"/>
    </vehicle>
    <vehicle id="185" depart="185.00">
        <route edges="253169363#0 253169363#1 253169363#3 183710406#3 183710406#4 183710406#5 183710406#6 792603041#0 792603041#1"/>
    </vehicle>
    <vehicle id="186" depart="186.00">
        <route edges="792837639 792839460#2 792839460#3 792839460#4 792839460#5 -792839454 792839455#0 792839455#1 792839469#4 792839469#5 792839452 792839466#3 788112301#3"/>
    </vehicle>
    <vehicle id="196" depart="196.00">
        <route edges="-798643663 -211238719#0 183710406#2 183710406#3 183710406#4 211238943#0 211238943#1"/>
    </vehicle>
    <vehicle id="198" depart="198.00">
        <route edges="183710406#2 183710406#3 -211238703 211238700#0 253170361"/>
    </vehicle>
    <vehicle id="202" depart="202.00">
        <route edges="792839459#1 792839459#2 792839459#3 792839459#4 792839460#5 -792839454 792839455#0 792839455#1 -792839455#1"/>
    </vehicle>
    <vehicle id="205" depart="205.00">
        <route edges="792839460#0 792839460#1 792839460#2 792839460#3 792839460#4 792839460#5 -792839454 792839455#0 792839455#1 792839469#4 792839469#5 792839452"/>
    </vehicle>
    <vehicle id="214" depart="214.00">
        <route edges="792839453 -792839469#4 -792839455#1 792839455#1"/>
    </vehicle>
    <vehicle id="216" depart="216.00">
        <route edges="-792839462#0 -792840706 792840706"/>
    </vehicle>
    <vehicle id="218" depart="218.00">
        <route edges="-792839469#2 792839469#2 -792839463#2 -792839463#1 -792839463#0 792839459#4 792839460#5"/>
    </vehicle>
    <vehicle id="221" depart="221.00">
        <route edges="533591547#0 533591547#1 788112301#0 788112301#1 788112301#2 -792839466#3 -792839466#2 792839453 792839469#5 792839469#6"/>
    </vehicle>
    <vehicle id="223" depart="223.00">
        <route edges="792603042#0 -792603042#0 261081394#2 -211238685#0 -211238700#2 211238700#2"/>
    </vehicle>
    <vehicle id="225" depart="225.00">
        <route edges="792839466#1 792839453 -792839469#4 -792839455#1 -792839455#0 792839454 792839460#0 792837637"/>
    </vehicle>
    <vehicle id="232" depart="232.00">
        <route edges="253169363#0 253169363#1 253169363#3 183710406#3 183710406#4 183710406#5 183710406#6 792603041#0 -792603042#1 -792603042#0"/>
    </vehicle>
    <vehicle id="234" depart="234.00">
        <route edges="792603040#2 792603040#1 261081394#2 -211238685#0 -211238700#2 -211238700#0"/>
    </vehicle>
    <vehicle id="238" depart="238.00">
        <route edges="261081394#3 183710406#6 788112907#0 788112907#1 788112907#2"/>
    </vehicle>
    <vehicle id="239" depart="239.00">
        <route edges="792839462#1 -792839463#1 792839456 792839455#0"/>
    </vehicle>
    <vehicle id="240" depart="240.00">
        <route edges="155214105#1 -211238501 211238721#1 -155214089#1"/>
    </vehicle>
    <vehicle id="242" depart="242.00">
        <route edges="792839462#0 -792840705 792840705"/>
    </vehicle>
    <vehicle id="244" depart="244.00">
        <route edges="253169363#1 253169363#3 183710406#3 183710406#4 211238943#0 211238943#1 211238943#2 261081394#3"/>
    </vehicle>
    <vehicle id="245" depart="245.00">
        <route edges="-792839466#1 792839466#1 792839453 -792839469#4 -792839464"/>
    </vehicle>
    <vehicle id="253" depart="253.00">
        <route edges="-792603042#1 -792603042#0 261081394#2 -211238685#0 -211238700#2 -211238700#0 211238703 183710406#4"/>
    </vehicle>
    <vehicle id="254" depart="254.00">
        <route edges="-211238685#0 -211238700#2 -211238700#0 211238703 183710406#4 183710406#5 183710406#6 788112907#0 788112907#1 788112907#2 155214076#0 155214076#1"/>
    </vehicle>
    <vehicle id="257" depart="257.00">
        <route edges="792839453 -792839469#4 -792839455#1 -792839455#0 792839454 792839460#0 792839460#1 792839460#2"/>
    </vehicle>
    <vehicle id="261" depart="261.00">
        <route edges="788112301#1 788112301#2 -792839466#3 -792839466#2 792839453 -792839469#4 -792839455#1 -792839455#0 792839454 792839460#0 792839460#1 792839460#2 792839460#3 792839458#0"/>
    </vehicle>
    <vehicle id="262" depart="262.00">
        <route edges="788112301#1 788112301#2 -792839466#3 -792839466#2 792839453"/>
    </vehicle>
    <vehicle id="263" depart="263.00">
        <route edges="792840706 792839462#0 792839462#1 -792839463#1 -792839463#0"/>
    </vehicle>
    <vehicle id="270" depart="270.00">
        <route edges="792839460#1 792839460#2 792839460#3 792839458#0 792839458#1 792839458#2 798296562#0"/>
    </vehicle>
    <vehicle id="274" depart="274.00">
        <route edges="792603041#1 -792603041#1 -792603042#1 -792603042#0 261081394#2 -211238685#0 -211238700#2 -211238700#0 253167911 -798643663 -211238719#0"/>
    </vehicle>
    <vehicle id="278" depart="278.00">
        <route edges="-792603041#0 792603041#0 -792603042#1 -792603042#0 261081394#2 -211238685#0 -211238700#2 -211238700#0 253167911 -798643663 798643663"/>
    </vehicle>
    <vehicle id="279" depart="279.00">
        <route edges="792839458#1 792839458#2 792839459#1 792839459#2 792839459#3 792839459#4 792839460#5 -792839454 792839455#0 792839455#1 792839469#4 792839469#5 792839452 792839466#3 788112301#3 155213926#1"/>
    </vehicle>
    <vehicle id="280" depart="280.00">
        <route edges="183710406#2 183710406#3 183710406#4 183710406#5 183710406#6 788112907#0 788112907#1 788112907#2 155214076#0 155214076#1 155213990#1"/>
    </vehicle>
    <vehicle id="282" depart="282.00">
        <route edges="792839461 -792839461 792839459#2 792839459#3 792839459#4 792839460#5 792839460#0"/>
    </vehicle>
    <vehicle id="287" depart="287.00">
        <route edges="-792839469#6 -792839469#5 -792839469#4 -792839469#3 -792839463#2 -792839462#1 -792840705 792839459#3"/>
    </vehicle>
    <vehicle id="289" depart="289.00">
        <route edges="183710406#3 183710406#4 183710406#5 183710406#6 792603041#0 -792603042#1 792603042#1"/>
    </vehicle>
    <vehicle id="290" depart="290.00">
        <route edges="-792839469#6 -792839469#5 -792839469#4 -792839469#3 -792839463#2 -792839462#1 -792839462#0 -792839461 792839461"/>
    </vehicle>
    <vehicle id="292" depart="292.00">
        <route edges="792839463#2 -792839469#2 -792839469#1 -792839469#0"/>
    </vehicle>
    <vehicle id="294" depart="294.00">
        <route edges="155214105#1 155214105#2 -155214105#2"/>
    </vehicle>
    <vehicle id="295" depart="295.00">
        <route edges="792839461 -792839461"/>
    </vehicle>
    <vehicle id="296" depart="296.00">
        <route edges="-792839464 792839469#2 -792839463#2 -792839462#1 -792839462#0 -792840706 -798296562#0 792839459#1"/>
    </vehicle>
    <vehicle id="297" depart="297.00">
        <route edges="155213926#2 792839469#0 792839469#1 792839469#2 -792839463#2 -792839463#1 792839463#1"/>
    </vehicle>
    <vehicle id="302" depart="302.00">
        <route edges="788112907#2 787957095#0 787957095#1 787957095#2"/>
    </vehicle>
    <vehicle id="305" depart="305.00">
        <route edges="788113793 183710406#0 183710406#1 183710406#2 183710406#3 183710406#4 211238943#0 211238943#1 -798641090"/>
    </vehicle>
    <vehicle id="306" depart="306.00">
        <route edges="261081394#3 183710406#6 183710406#7"/>
    </vehicle>
    <vehicle id="307" depart="307.00">
        <route edges="253027477 792839458#2 792839459#1 792839459#2 792839459#3 792839459#4 792839460#5 792839460#0 792839460#1 792839460#2 155218590#0"/>
    </vehicle>
    <vehicle id="313" depart="313.00">
        <route edges="-792839462#1 792839462#1 792839463#2 792839469#3 -792839464"/>
    </vehicle>
    <vehicle id="314" depart="314.00">
        <route edges="211238700#3 261081394#3 183710406#6 792603041#0 -792603042#1 -792603042#0 792603042#0"/>
    </vehicle>
    <vehicle id="315" depart="315.00">
        <route edges="798643663 -798643663 211238719#1"/>
    </vehicle>
    <vehicle id="317" depart="317.00">
        <route edges="-792839463#0 792839459#4 792839460#5 -792839454 792839455#0 792839455#1 792839469#4 792839469#5 792839452 -792839466#2 -792839466#1"/>
    </vehicle>
    <vehicle id="320" depart="320.00">
        <route edges="798643663 253169363#3 183710406#3 183710406#4 211238943#0 211238943#1 211238943#2"/>
    </vehicle>
    <vehicle id="321" depart="321.00">
        <route edges="792603040#1 792603042#0 792603042#1 -792603041#0"/>
    </vehicle>
    <vehicle id="328" depart="328.00">
        <route edges="-211238719#0 183710406#2 183710406#3 183710406#4 183710406#5 183710406#6 788112907#0 788112907#1 788112907#2 787957095#0 787957095#1 787957095#2 787957085"/>
    </vehicle>
    <vehicle id="329" depart="329.00">
        <route edges="-211238700#0 211238700#0 792604096 -792604096"/>
    </vehicle>
    <vehicle id="333" depart="333.00">
        <route edges="792839458#2 792839459#1 792839459#2 792839459#3 792839459#4 792839460#5 -792839454 792839455#0 792839455#1 792839469#4 792839469#5 792839452 -792839466#2 -792839466#1 -792839465"/>
    </vehicle>
    <vehicle id="334" depart="334.00">
        <route edges="211238943#2 -211238685#0 -211238700#2 -211238700#0 253167911 -798643663 -211238719#0 183710406#2"/>
    </vehicle>
    <vehicle id="338" depart="338.00">
        <route edges="792837639 792839460#2 792839460#3 792839460#4 792839460#5 -792839454 792839455#0 792839455#1 792839469#4 792839469#5 792839469#6"/>
    </vehicle>
    <vehicle id="339" depart="339.00">
        <route edges="-792839464 792839469#2 -792839463#2"/>
    </vehicle>
    <vehicle id="340" depart="340.00">
        <route edges="788112301#3 155213926#1 792839466#1 792839453 -792839469#4 -792839455#1 -792839455#0 792839454 792839460#0 792839460#1 792839460#2 792839460#3 792839460#4 792839460#5 -792839454"/>
    </vehicle>
    <vehicle id="343" depart="343.00">
        <route edges="533591547#0 533591547#1 788112301#0 788112301#1 788112301#2 -792839466#3 -792839466#2 792839453 -792839469#4 -792839455#1 -792839455#0 792839454 792839460#0 792839460#1 792839460#2 792839460#3 792839458#0 -798296565"/>
    </vehicle>
    <vehicle id="345" depart="345.00">
        <route edges="792603040#2 792603040#1 261081394#2 -211238685#0 -211238700#2 792604096 253169363#1 253169363#3 183710406#3"/>
    </vehicle>
    <vehicle id="348" depart="348.00">
        <route edges="788112301#3 155213926#1 155213926#2 792839469#0 792839469#1 792839469#2 792839469#3"/>
    </vehicle>
    <vehicle id="349" depart="349.00">
        <route edges="183710406#1 183710406#2 183710406#3 183710406#4 211238943#0 211238943#1"/>
    </vehicle>
    <vehicle id="350" depart="350.00">
        <route edges="788112301#0 788112301#1 788112301#2 -792839466#3 -792839466#2 792839466#2"/>
    </vehicle>
    <vehicle id="357" depart="357.00">
        <route edges="211238703 -211238703 253167911 -798643663 -211238719#0"/>
    </vehicle>
    <vehicle id="366" depart="366.00">
        <route edges="792839469#1 792839469#2 -792839463#2 -792839462#1 -792839462#0 -792839461"/>
    </vehicle>
    <vehicle id="372" depart="372.00">
        <route edges="-798296562#1 792840706 792839462#0 792839462#1 792839463#2 792839469#3 792839469#4 792839469#5"/>
    </vehicle>
    <vehicle id="381" depart="381.00">
        <route edges="792839454 792839460#0 792839460#1 792839460#2 792839460#3 792839460#4 792839460#5 -792839454 -792839456 -792839463#0"/>
    </vehicle>
    <vehicle id="383" depart="383.00">
        <route edges="183710406#4 183710406#5 183710406#6 788112907#0 788112907#1 788112907#2"/>
    </vehicle>
    <vehicle id="384" depart="384.00">
        <route edges="-792603041#0 792603041#0 -792603042#1 -792603042#0 261081394#2 -211238685#0 798641090"/>
    </vehicle>
    <vehicle id="391" depart="391.00">
        <route edges="792603041#1 -792603041#1 -792603042#1 -792603042#0 261081394#2 -211238685#0 211238700#3"/>
    </vehicle>
    <vehicle id="392" depart="392.00">
        <route edges="-792840705 792839459#3 792839459#4 792839460#5 792839460#0 792839460#1 792839460#2 792839460#3"/>
    </vehicle>
    <vehicle id="393" depart="393.00">
        <route edges="849300015 155213926#1 155213926#2 792839469#0 -792839469#0"/>
    </vehicle>
    <vehicle id="396" depart="396.00">
        <route edges="792839463#2 -792839463#2 -792839462#1 792839462#1"/>
    </vehicle>
    <vehicle id="397" depart="397.00">
        <route edges="-792840705 792839459#3 792839459#4 792839460#5 792839460#0 792839460#1 792839460#2 792839460#3 792839458#0 792839458#1"/>
    </vehicle>
    <vehicle id="400" depart="400.00">
        <route edges="-798296562#0 792839459#1 792839459#2 792839459#3 792839459#4 792839460#5 792839460#0 792839460#1 792839460#2 155218590#0 -798296568"/>
    </vehicle>
    <vehicle id="401" depart="401.00">
        <route edges="388329102 1151339362#0 1151339362#1 854192073#0 854192073#1"/>
    </vehicle>
    <vehicle id="402" depart="402.00">
        <route edges="211238703 -211238703 211238700#0 792604096 -792604096"/>
    </vehicle>
    <vehicle id="404" depart="404.00">
        <route edges="253169363#3 183710406#3 183710406#4 211238943#0 211238943#1"/>
    </vehicle>
    <vehicle id="411" depart="411.00">
        <route edges="788112301#3 155213926#1 792839466#1 792839453 -792839469#4 -792839455#1 -792839455#0 792839454 792839460#0"/>
    </vehicle>
    <vehicle id="414" depart="414.00">
        <route edges="388329102 155214116 788112301#0 788112301#1 788112301#2 788112301#3 155213926#1 155213926#2 792839469#0 792839469#1 792839469#2 -792839463#2 792839462#2"/>
    </vehicle>
    <vehicle id="416" depart="416.00">
        <route edges="211238943#2 -211238685#0 -211238700#2 792604096 253169363#1 253169363#3 183710406#3"/>
    </vehicle>
    <vehicle id="421" depart="421.00">
        <route edges="788112301#1 788112301#2 788112301#3 155213926#1 155213926#2 792839469#0 792839469#1 792839469#2 -792839463#2 -792839462#1 -792839462#0 -792839461 792839461"/>
    </vehicle>
    <vehicle id="422" depart="422.00">
        <route edges="792839462#0"/>
    </vehicle>
    <vehicle id="425" depart="425.00">
        <route edges="792839463#1 -792839463#1 -792839463#0 792839459#4 792839460#5 792839460#0 792839460#1 792839460#2 155218590#0 -155218590#0"/>
    </vehicle>
    <vehicle id="426" depart="426.00">
        <route edges="-211238703 211238703 183710406#4 183710406#5 183710406#6 788112907#0 788112907#1 788112907#2 787957095#0 787957095#1 787957095#2 787957085"/>
    </vehicle>
    <vehicle id="428" depart="428.00">
        <route edges="792839452 -792839466#2 792839453 -792839469#4 -792839455#1 -792839455#0 792839454 792839460#0 792839460#1 792839460#2 155218590#0 155218590#1"/>
    </vehicle>
    <vehicle id="429" depart="429.00">
        <route edges="-253169363#1 253169363#1 253169363#3 183710406#3 183710406#4 183710406#5 183710406#6 788112907#0 788112907#1 788112907#2 787957095#0 787957095#1 787957095#2 787957085"/>
    </vehicle>
    <vehicle id="433" depart="433.00">
        <route edges="-798641090 -211238700#2 -211238700#0 211238703 183710406#4 183710406#5 183710406#6 788112907#0 788112907#1 788112907#2 155214076#0"/>
    </vehicle>
    <vehicle id="438" depart="438.00">
        <route edges="-792839469#1 792839465 792839466#1 792839466#2 792839466#3"/>
    </vehicle>
    <vehicle id="439" depart="439.00">
        <route edges="-792604096 -211238700#0 211238703 183710406#4"/>
    </vehicle>
    <vehicle id="440" depart="440.00">
        <route edges="-792839469#3 -792839469#2"/>
    </vehicle>
    <vehicle id="444" depart="444.00">
        <route edges="155213990#1 533594356 259352271#1"/>
    </vehicle>
    <vehicle id="446" depart="446.00">
        <route edges="-792839469#3 -792839463#2 -792839463#1 -792839463#0 792839459#4 792839460#5"/>
    </vehicle>
    <vehicle id="449" depart="449.00">
        <route edges="261081394#0 261081394#2 -211238685#0 -211238700#2 792604096 253169363#1 253169363#3"/>
    </vehicle>
    <vehicle id="454" depart="454.00">
        <route edges="-211238685#0 798641090 211238943#2 261081394#3"/>
    </vehicle>
    <vehicle id="456" depart="456.00">
        <route edges="-798296562#0 792839459#1"/>
    </vehicle>
    <vehicle id="459" depart="459.00">
        <route edges="788112907#0 -792603041#1 -792603042#1 -792603042#0 792603042#0"/>
    </vehicle>
    <vehicle id="460" depart="460.00">
        <route edges="788112301#2 -792839466#3 -792839466#2 792839453 -792839469#4 -792839455#1 -792839455#0 792839454 792839460#0 792839460#1 792839460#2 792839460#3"/>
    </vehicle>
    <vehicle id="463" depart="463.00">
        <route edges="183710406#4 211238943#0 -253170361 253170361"/>
    </vehicle>
    <vehicle id="468" depart="468.00">
        <route edges="253027477 792839458#2 792839459#1 792839459#2 792839459#3 792839459#4 792839460#5 -792839454 792839455#0 792839455#1 792839469#4 792839469#5 792839452 792839466#3"/>
    </vehicle>
    <vehicle id="469" depart="469.00">
        <route edges="792839460#3 792839460#4 792839460#5 -792839454 792839455#0 792839455#1 -792839469#3 -792839469#2"/>
    </vehicle>
    <vehicle id="471" depart="471.00">
        <route edges="792839459#3 792839459#4 792839460#5 792839460#0 792837637"/>
    </vehicle>
    <vehicle id="474" depart="474.00">
        <route edges="798296568 -155218590#0 792839460#3 792839460#4 792839460#5 -792839454 792839455#0 -792839462#2 -792839462#1 -792839462#0 792839462#0"/>
    </vehicle>
    <vehicle id="475" depart="475.00">
        <route edges="792603042#1 -792603042#1 -792603042#0 261081394#2 -211238685#0 -211238700#2 -211238700#0 253167911 -798643663 798643663"/>
    </vehicle>
    <vehicle id="476" depart="476.00">
        <route edges="798296568 -155218590#0 792839460#3 792839458#0 792839458#1 792839458#2 792839459#1 792839459#2"/>
    </vehicle>
    <vehicle id="478" depart="478.00">
        <route edges="-155214105#1 211238670#0 211238721#0 211238721#1"/>
    </vehicle>
    <vehicle id="481" depart="481.00">
        <route edges="792839460#1 792839460#2 792839460#3 792839460#4 792839460#5 -792839454 792839455#0 792839455#1 792839469#4"/>
    </vehicle>
    <vehicle id="483" depart="483.00">
        <route edges="-155218590#0 792839460#3 792839460#4 792839460#5 -792839454 -792839456 792839463#1 792839463#2"/>
    </vehicle>
    <vehicle id="486" depart="486.00">
        <route edges="792839460#1 792839460#2 792839460#3 792839460#4 792839460#5 -792839454 792839455#0 792839455#1 792839469#4 792839469#5 792839452 792839466#3"/>
    </vehicle>
    <vehicle id="489" depart="489.00">
        <route edges="1151339361#0 155214119#0 -211238670#1 211238670#1"/>
    </vehicle>
    <vehicle id="491" depart="491.00">
        <route edges="-792603042#1 -792603042#0 261081394#2 -211238685#0 -211238700#2 792604096 253169363#1 253169363#3 183710406#3"/>
    </vehicle>
    <vehicle id="497" depart="497.00">
        <route edges="792840706 -792839461 792839459#2 792839459#3 792839459#4 792839460#5 792839460#0 792839460#1 792839460#2 155218590#0 -155218590#0"/>
    </vehicle>
    <vehicle id="499" depart="499.00">
        <route edges="792840706 792839462#0"/>
    </vehicle>
    <vehicle id="500" depart="500.00">
        <route edges="-253169363#1 253169363#1 253169363#3 183710406#3 183710406#4 183710406#5 183710406#6 788112907#0"/>
    </vehicle>
    <vehicle id="501" depart="501.00">
        <route edges="253169363#1 -253169363#1 -792604096 211238700#2 798641090"/>
    </vehicle>