<?xml version="1.0" encoding="UTF-8"?>

<!-- generated on 01/02/24 17:33:42 by Eclipse SUMO netconvert Version 1.7.0
<configuration xmlns:xsi="http://www.w3.org/2001/XMLSchema-instance" xsi:noNamespaceSchemaLocation="http://sumo.dlr.de/xsd/netconvertConfiguration.xsd">

    <input>
        <osm-files value="downtown.osm"/>
    </input>

    <output>
        <output-file value="downtown.net.xml"/>
    </output>

    <projection>
        <proj.utm value="true"/>
    </projection>

    <processing>
        <geometry.remove value="true"/>
        <roundabouts.guess value="true"/>
    </processing>

    <tls_building>
        <tls.discard-simple value="true"/>
        <tls.join value="true"/>
        <tls.guess-signals value="true"/>
    </tls_building>

    <junctions>
        <junctions.join value="true"/>
    </junctions>

    <report>
        <aggregate-warnings value="5"/>
    </report>

</configuration>
-->

<net version="1.6" junctionCornerDetail="5" limitTurnSpeed="5.50" xmlns:xsi="http://www.w3.org/2001/XMLSchema-instance" xsi:noNamespaceSchemaLocation="http://sumo.dlr.de/xsd/net_file.xsd">

    <location netOffset="-716234.45,-4288631.53" convBoundary="0.00,0.00,1722.76,1167.68" origBoundary="35.487293,38.719619,35.507255,38.730242" projParameter="+proj=utm +zone=36 +ellps=WGS84 +datum=WGS84 +units=m +no_defs"/>

    <type id="highway.bridleway" priority="1" numLanes="1" speed="2.78" allow="pedestrian" oneway="1" width="2.00"/>
    <type id="highway.bus_guideway" priority="1" numLanes="1" speed="27.78" allow="bus" oneway="1"/>
    <type id="highway.cycleway" priority="1" numLanes="1" speed="8.33" allow="bicycle" oneway="0" width="1.00"/>
    <type id="highway.footway" priority="1" numLanes="1" speed="2.78" allow="pedestrian" oneway="1" width="2.00"/>
    <type id="highway.ford" priority="1" numLanes="1" speed="2.78" allow="army" oneway="0"/>
    <type id="highway.living_street" priority="2" numLanes="1" speed="2.78" disallow="tram rail_urban rail rail_electric rail_fast ship" oneway="0"/>
    <type id="highway.motorway" priority="14" numLanes="2" speed="39.44" allow="private emergency authority army vip passenger hov taxi bus coach delivery truck trailer motorcycle evehicle custom1 custom2" oneway="1"/>
    <type id="highway.motorway_link" priority="9" numLanes="1" speed="22.22" allow="private emergency authority army vip passenger hov taxi bus coach delivery truck trailer motorcycle evehicle custom1 custom2" oneway="1"/>
    <type id="highway.path" priority="1" numLanes="1" speed="2.78" allow="pedestrian bicycle" oneway="1" width="2.00"/>
    <type id="highway.pedestrian" priority="1" numLanes="1" speed="2.78" allow="pedestrian" oneway="1" width="2.00"/>
    <type id="highway.primary" priority="12" numLanes="2" speed="27.78" disallow="tram rail_urban rail rail_electric rail_fast ship" oneway="0"/>
    <type id="highway.primary_link" priority="7" numLanes="1" speed="22.22" disallow="tram rail_urban rail rail_electric rail_fast ship" oneway="0"/>
    <type id="highway.raceway" priority="15" numLanes="2" speed="83.33" allow="vip" oneway="0"/>
    <type id="highway.residential" priority="3" numLanes="1" speed="13.89" disallow="tram rail_urban rail rail_electric rail_fast ship" oneway="0"/>
    <type id="highway.secondary" priority="11" numLanes="1" speed="27.78" disallow="tram rail_urban rail rail_electric rail_fast ship" oneway="0"/>
    <type id="highway.secondary_link" priority="6" numLanes="1" speed="22.22" disallow="tram rail_urban rail rail_electric rail_fast ship" oneway="0"/>
    <type id="highway.service" priority="1" numLanes="1" speed="5.56" allow="pedestrian delivery bicycle" oneway="0"/>
    <type id="highway.stairs" priority="1" numLanes="1" speed="1.39" allow="pedestrian" oneway="1" width="2.00"/>
    <type id="highway.step" priority="1" numLanes="1" speed="1.39" allow="pedestrian" oneway="1" width="2.00"/>
    <type id="highway.steps" priority="1" numLanes="1" speed="1.39" allow="pedestrian" oneway="1" width="2.00"/>
    <type id="highway.tertiary" priority="10" numLanes="1" speed="22.22" disallow="tram rail_urban rail rail_electric rail_fast ship" oneway="0"/>
    <type id="highway.tertiary_link" priority="5" numLanes="1" speed="22.22" disallow="tram rail_urban rail rail_electric rail_fast ship" oneway="0"/>
    <type id="highway.track" priority="1" numLanes="1" speed="5.56" allow="pedestrian motorcycle moped bicycle" oneway="0"/>
    <type id="highway.trunk" priority="13" numLanes="2" speed="27.78" disallow="pedestrian bicycle tram rail_urban rail rail_electric rail_fast ship" oneway="0"/>
    <type id="highway.trunk_link" priority="8" numLanes="1" speed="22.22" disallow="pedestrian bicycle tram rail_urban rail rail_electric rail_fast ship" oneway="0"/>
    <type id="highway.unclassified" priority="4" numLanes="1" speed="13.89" disallow="tram rail_urban rail rail_electric rail_fast ship" oneway="0"/>
    <type id="highway.unsurfaced" priority="1" numLanes="1" speed="8.33" disallow="tram rail_urban rail rail_electric rail_fast ship" oneway="0"/>
    <type id="railway.highspeed" priority="21" numLanes="1" speed="69.44" allow="rail_fast" oneway="1"/>
    <type id="railway.light_rail" priority="19" numLanes="1" speed="27.78" allow="rail_urban" oneway="1"/>
    <type id="railway.preserved" priority="16" numLanes="1" speed="27.78" allow="rail" oneway="1"/>
    <type id="railway.rail" priority="20" numLanes="1" speed="44.44" allow="rail" oneway="1"/>
    <type id="railway.subway" priority="18" numLanes="1" speed="27.78" allow="rail_urban" oneway="1"/>
    <type id="railway.tram" priority="17" numLanes="1" speed="13.89" allow="tram" oneway="1"/>

    <edge id=":10710933849_0" function="internal">
        <lane id=":10710933849_0_0" index="0" disallow="tram rail_urban rail rail_electric rail_fast ship" speed="22.22" length="16.57" shape="1006.60,352.97 1008.09,347.94 1008.34,343.86 1007.95,340.26 1007.54,336.67"/>
    </edge>
    <edge id=":10710933849_1" function="internal">
        <lane id=":10710933849_1_0" index="0" disallow="tram rail_urban rail rail_electric rail_fast ship" speed="22.22" length="16.71" shape="1006.60,352.97 1012.25,337.37"/>
        <lane id=":10710933849_1_1" index="1" disallow="tram rail_urban rail rail_electric rail_fast ship" speed="22.22" length="16.71" shape="1009.56,354.19 1015.26,338.48"/>
        <lane id=":10710933849_1_2" index="2" disallow="tram rail_urban rail rail_electric rail_fast ship" speed="22.22" length="16.71" shape="1012.52,355.40 1018.26,339.59"/>
    </edge>
    <edge id=":10710933851_0" function="internal">
        <lane id=":10710933851_0_0" index="0" disallow="tram rail_urban rail rail_electric rail_fast ship" speed="22.22" length="9.15" shape="1005.46,312.74 1011.91,306.25"/>
    </edge>
    <edge id=":10710933851_1" function="internal">
        <lane id=":10710933851_1_0" index="0" disallow="tram rail_urban rail rail_electric rail_fast ship" speed="13.44" length="9.16" shape="1008.86,314.63 1009.33,311.94 1009.59,310.00 1010.25,308.28 1011.91,306.25"/>
    </edge>
    <edge id=":1407500647_0" function="internal">
        <lane id=":1407500647_0_0" index="0" disallow="pedestrian bicycle tram rail_urban rail rail_electric rail_fast ship" speed="25.00" length="82.05" shape="1157.26,619.78 1231.53,654.20"/>
        <lane id=":1407500647_0_1" index="1" disallow="pedestrian bicycle tram rail_urban rail rail_electric rail_fast ship" speed="25.00" length="82.05" shape="1155.79,622.64 1230.41,657.20"/>
    </edge>
    <edge id=":1407500647_2" function="internal">
        <lane id=":1407500647_2_0" index="0" disallow="pedestrian bicycle tram rail_urban rail rail_electric rail_fast ship" speed="27.78" length="82.18" shape="1154.48,625.60 1231.53,654.20"/>
        <lane id=":1407500647_2_1" index="1" disallow="pedestrian bicycle tram rail_urban rail rail_electric rail_fast ship" speed="27.78" length="82.18" shape="1153.37,628.60 1230.41,657.20"/>
    </edge>
    <edge id=":1676266667_0" function="internal">
        <lane id=":1676266667_0_0" index="0" disallow="tram rail_urban rail rail_electric rail_fast ship" speed="22.22" length="29.98" shape="1080.76,256.55 1077.12,266.12 1075.05,274.27 1073.93,280.78 1073.13,285.44"/>
    </edge>
    <edge id=":1676266667_1" function="internal">
        <lane id=":1676266667_1_0" index="0" disallow="tram rail_urban rail rail_electric rail_fast ship" speed="22.22" length="30.00" shape="1080.76,256.55 1069.46,284.24"/>
        <lane id=":1676266667_1_1" index="1" disallow="tram rail_urban rail rail_electric rail_fast ship" speed="22.22" length="30.00" shape="1077.85,255.23 1066.51,283.00"/>
        <lane id=":1676266667_1_2" index="2" disallow="tram rail_urban rail rail_electric rail_fast ship" speed="22.22" length="30.00" shape="1074.93,253.90 1063.56,281.76"/>
    </edge>
    <edge id=":1676266799_0" function="internal">
        <lane id=":1676266799_0_0" index="0" disallow="tram rail_urban rail rail_electric rail_fast ship" speed="3.65" length="4.67" shape="1222.05,286.95 1223.22,286.10 1224.11,286.00 1224.72,286.65 1225.05,288.06"/>
    </edge>
    <edge id=":1676266909_0" function="internal">
        <lane id=":1676266909_0_0" index="0" disallow="tram rail_urban rail rail_electric rail_fast ship" speed="22.22" length="47.38" shape="1024.45,293.63 1028.37,285.90 1033.63,271.96 1038.36,257.76 1040.69,249.23"/>
    </edge>
    <edge id=":1676266909_1" function="internal">
        <lane id=":1676266909_1_0" index="0" disallow="tram rail_urban rail rail_electric rail_fast ship" speed="22.22" length="47.87" shape="1024.45,293.63 1028.29,287.32 1033.69,275.82 1039.38,262.33 1044.08,250.06"/>
    </edge>
    <edge id=":1676266909_2" function="internal">
        <lane id=":1676266909_2_0" index="0" disallow="tram rail_urban rail rail_electric rail_fast ship" speed="22.22" length="48.26" shape="1027.62,295.66 1031.75,283.16 1035.84,269.02 1039.09,256.59 1040.69,249.23"/>
    </edge>
    <edge id=":1676266909_3" function="internal">
        <lane id=":1676266909_3_0" index="0" disallow="tram rail_urban rail rail_electric rail_fast ship" speed="22.22" length="48.50" shape="1027.62,295.66 1044.08,250.06"/>
        <lane id=":1676266909_3_1" index="1" disallow="tram rail_urban rail rail_electric rail_fast ship" speed="22.22" length="48.50" shape="1030.63,296.76 1047.09,251.14"/>
        <lane id=":1676266909_3_2" index="2" disallow="tram rail_urban rail rail_electric rail_fast ship" speed="22.22" length="48.50" shape="1033.63,297.87 1050.11,252.22"/>
    </edge>
    <edge id=":1676267815_0" function="internal">
        <lane id=":1676267815_0_0" index="0" disallow="tram rail_urban rail rail_electric rail_fast ship" speed="13.89" length="14.67" shape="1198.60,359.65 1193.15,373.27"/>
    </edge>
    <edge id=":1676267815_1" function="internal">
        <lane id=":1676267815_1_0" index="0" disallow="tram rail_urban rail rail_electric rail_fast ship" speed="7.86" length="6.24" shape="1198.60,359.65 1196.68,363.19 1194.92,364.54"/>
    </edge>
    <edge id=":1676267815_2" function="internal">
        <lane id=":1676267815_2_0" index="0" disallow="tram rail_urban rail rail_electric rail_fast ship" speed="3.65" length="2.34" shape="1198.60,359.65 1197.43,360.50 1196.54,360.60"/>
    </edge>
    <edge id=":1676267815_9" function="internal">
        <lane id=":1676267815_9_0" index="0" disallow="tram rail_urban rail rail_electric rail_fast ship" speed="7.86" length="8.27" shape="1194.92,364.54 1194.12,365.16 1190.91,365.56 1187.06,364.40"/>
    </edge>
    <edge id=":1676267815_10" function="internal">
        <lane id=":1676267815_10_0" index="0" disallow="tram rail_urban rail rail_electric rail_fast ship" speed="3.65" length="2.34" shape="1196.54,360.60 1195.93,359.95 1195.60,358.54"/>
    </edge>
    <edge id=":1676267815_3" function="internal">
        <lane id=":1676267815_3_0" index="0" disallow="tram rail_urban rail rail_electric rail_fast ship" speed="6.33" length="9.04" shape="1188.41,361.50 1190.81,362.22 1192.81,361.97 1194.40,360.75 1195.60,358.54"/>
    </edge>
    <edge id=":1676267815_4" function="internal">
        <lane id=":1676267815_4_0" index="0" disallow="tram rail_urban rail rail_electric rail_fast ship" speed="8.14" length="14.38" shape="1188.41,361.50 1191.78,363.67 1193.69,366.35 1194.15,369.56 1193.15,373.27"/>
    </edge>
    <edge id=":1676267815_5" function="internal">
        <lane id=":1676267815_5_0" index="0" disallow="tram rail_urban rail rail_electric rail_fast ship" speed="3.65" length="4.67" shape="1188.41,361.50 1189.16,362.73 1189.18,363.62 1188.48,364.18 1187.06,364.40"/>
    </edge>
    <edge id=":1676267815_6" function="internal">
        <lane id=":1676267815_6_0" index="0" disallow="tram rail_urban rail rail_electric rail_fast ship" speed="6.67" length="9.33" shape="1190.21,372.00 1190.84,369.61 1190.53,367.55 1189.27,365.81 1187.06,364.40"/>
    </edge>
    <edge id=":1676267815_7" function="internal">
        <lane id=":1676267815_7_0" index="0" disallow="tram rail_urban rail rail_electric rail_fast ship" speed="13.89" length="14.50" shape="1190.21,372.00 1195.60,358.54"/>
    </edge>
    <edge id=":1676267815_8" function="internal">
        <lane id=":1676267815_8_0" index="0" disallow="tram rail_urban rail rail_electric rail_fast ship" speed="3.65" length="2.34" shape="1190.21,372.00 1191.43,371.22 1192.32,371.17"/>
    </edge>
    <edge id=":1676267815_11" function="internal">
        <lane id=":1676267815_11_0" index="0" disallow="tram rail_urban rail rail_electric rail_fast ship" speed="3.65" length="2.34" shape="1192.32,371.17 1192.89,371.85 1193.15,373.27"/>
    </edge>
    <edge id=":1676268129_0" function="internal">
        <lane id=":1676268129_0_0" index="0" disallow="pedestrian bicycle tram rail_urban rail rail_electric rail_fast ship" speed="5.70" length="9.14" shape="661.61,437.90 660.19,439.98 660.13,441.74 661.44,443.18 664.12,444.30"/>
    </edge>
    <edge id=":1676268129_1" function="internal">
        <lane id=":1676268129_1_0" index="0" disallow="pedestrian bicycle tram rail_urban rail rail_electric rail_fast ship" speed="5.92" length="9.48" shape="661.61,437.90 660.16,440.03 660.07,441.91 661.33,443.54 663.94,444.92"/>
    </edge>
    <edge id=":1676268129_2" function="internal">
        <lane id=":1676268129_2_0" index="0" disallow="tram rail_urban rail rail_electric rail_fast ship" speed="3.74" length="5.01" shape="661.61,437.90 660.33,438.77 659.37,438.84 658.74,438.12 658.43,436.61"/>
    </edge>
    <edge id=":1676268129_3" function="internal">
        <lane id=":1676268129_3_0" index="0" disallow="pedestrian bicycle tram rail_urban rail rail_electric rail_fast ship" speed="7.63" length="9.21" shape="650.29,439.53 652.26,439.95 654.27,439.60 656.33,438.48 658.43,436.61"/>
    </edge>
    <edge id=":1676268129_4" function="internal">
        <lane id=":1676268129_4_0" index="0" disallow="pedestrian bicycle tram rail_urban rail rail_electric rail_fast ship" speed="25.00" length="15.25" shape="650.29,439.53 654.25,441.67 656.66,443.75 659.13,445.67 663.23,447.37"/>
    </edge>
    <edge id=":1676268129_5" function="internal">
        <lane id=":1676268129_5_0" index="0" disallow="pedestrian bicycle tram rail_urban rail rail_electric rail_fast ship" speed="27.78" length="14.84" shape="650.29,439.53 663.94,444.92"/>
        <lane id=":1676268129_5_1" index="1" disallow="pedestrian bicycle tram rail_urban rail rail_electric rail_fast ship" speed="27.78" length="14.84" shape="649.08,442.49 663.05,448.01"/>
    </edge>
    <edge id=":1676268165_0" function="internal">
        <lane id=":1676268165_0_0" index="0" disallow="tram rail_urban rail rail_electric rail_fast ship" speed="7.50" length="10.14" shape="1011.99,469.94 1009.24,469.35 1006.85,469.62 1004.80,470.74 1003.11,472.70"/>
    </edge>
    <edge id=":1676268165_1" function="internal">
        <lane id=":1676268165_1_0" index="0" disallow="tram rail_urban rail rail_electric rail_fast ship" speed="3.65" length="4.67" shape="1011.99,469.94 1011.12,468.79 1011.00,467.90 1011.64,467.28 1013.03,466.91"/>
    </edge>
    <edge id=":1676268165_2" function="internal">
        <lane id=":1676268165_2_0" index="0" disallow="tram rail_urban rail rail_electric rail_fast ship" speed="6.37" length="9.04" shape="1009.84,459.79 1009.21,462.21 1009.54,464.20 1010.81,465.77 1013.03,466.91"/>
    </edge>
    <edge id=":1676268165_3" function="internal">
        <lane id=":1676268165_3_0" index="0" disallow="tram rail_urban rail rail_electric rail_fast ship" speed="22.22" length="14.58" shape="1009.84,459.79 1008.35,463.16 1006.76,466.39 1005.02,469.55 1003.11,472.70"/>
    </edge>
    <edge id=":1676268191_0" function="internal">
        <lane id=":1676268191_0_0" index="0" disallow="pedestrian bicycle tram rail_urban rail rail_electric rail_fast ship" speed="25.00" length="34.91" shape="689.67,481.03 682.87,476.37 675.42,471.12 667.79,466.27 660.42,462.77"/>
        <lane id=":1676268191_0_1" index="1" disallow="pedestrian bicycle tram rail_urban rail rail_electric rail_fast ship" speed="25.00" length="34.91" shape="691.39,478.33 684.49,473.62 676.82,468.27 668.95,463.30 661.49,459.75"/>
    </edge>
    <edge id=":1676268191_2" function="internal">
        <lane id=":1676268191_2_0" index="0" disallow="pedestrian bicycle tram rail_urban rail rail_electric rail_fast ship" speed="27.78" length="34.89" shape="692.97,475.22 660.42,462.77"/>
        <lane id=":1676268191_2_1" index="1" disallow="pedestrian bicycle tram rail_urban rail rail_electric rail_fast ship" speed="27.78" length="34.89" shape="694.11,472.23 661.49,459.75"/>
    </edge>
    <edge id=":1676268210_0" function="internal">
        <lane id=":1676268210_0_0" index="0" disallow="tram rail_urban rail rail_electric rail_fast ship" speed="13.93" length="7.00" shape="953.82,481.74 953.54,479.67 953.33,478.22 953.42,476.81 954.02,474.87"/>
    </edge>
    <edge id=":1676268210_1" function="internal">
        <lane id=":1676268210_1_0" index="0" disallow="tram rail_urban rail rail_electric rail_fast ship" speed="22.22" length="4.04" shape="952.24,478.48 952.85,477.45 953.24,476.73 953.58,475.98 954.02,474.87"/>
    </edge>
    <edge id=":1676268458_0" function="internal">
        <lane id=":1676268458_0_0" index="0" disallow="pedestrian bicycle tram rail_urban rail rail_electric rail_fast ship" speed="22.22" length="10.65" shape="942.51,491.80 943.77,488.87 944.39,486.73 944.69,484.55 944.97,481.52"/>
    </edge>
    <edge id=":1676268458_1" function="internal">
        <lane id=":1676268458_1_0" index="0" disallow="pedestrian bicycle tram rail_urban rail rail_electric rail_fast ship" speed="22.22" length="15.99" shape="945.41,493.15 947.53,488.43 949.09,484.80 950.49,481.72 952.14,478.65"/>
    </edge>
    <edge id=":1676268588_0" function="internal">
        <lane id=":1676268588_0_0" index="0" disallow="tram rail_urban rail rail_electric rail_fast ship" speed="22.22" length="16.18" shape="992.94,488.75 990.79,492.04 988.50,495.52 986.30,499.05 984.42,502.50"/>
    </edge>
    <edge id=":1676268588_1" function="internal">
        <lane id=":1676268588_1_0" index="0" disallow="tram rail_urban rail rail_electric rail_fast ship" speed="22.22" length="16.18" shape="989.74,487.23 988.55,490.98 987.31,494.96 985.96,498.89 984.42,502.50"/>
    </edge>
    <edge id=":1676268785_0" function="internal">
        <lane id=":1676268785_0_0" index="0" disallow="tram rail_urban rail rail_electric rail_fast ship" speed="13.89" length="15.59" shape="1224.51,551.85 1210.03,546.08"/>
    </edge>
    <edge id=":1676268785_1" function="internal">
        <lane id=":1676268785_1_0" index="0" disallow="tram rail_urban rail rail_electric rail_fast ship" speed="10.94" length="5.55" shape="1224.51,551.85 1221.67,550.13 1220.24,548.42"/>
    </edge>
    <edge id=":1676268785_2" function="internal">
        <lane id=":1676268785_2_0" index="0" disallow="tram rail_urban rail rail_electric rail_fast ship" speed="3.65" length="2.34" shape="1224.51,551.85 1223.68,550.67 1223.60,549.78"/>
    </edge>
    <edge id=":1676268785_9" function="internal">
        <lane id=":1676268785_9_0" index="0" disallow="tram rail_urban rail rail_electric rail_fast ship" speed="10.94" length="10.38" shape="1220.24,548.42 1219.37,547.39 1217.62,543.65 1216.41,538.90"/>
    </edge>
    <edge id=":1676268785_10" function="internal">
        <lane id=":1676268785_10_0" index="0" disallow="tram rail_urban rail rail_electric rail_fast ship" speed="3.65" length="2.34" shape="1223.60,549.78 1224.27,549.18 1225.68,548.87"/>
    </edge>
    <edge id=":1676268785_3" function="internal">
        <lane id=":1676268785_3_0" index="0" disallow="tram rail_urban rail rail_electric rail_fast ship" speed="9.80" length="12.67" shape="1219.56,538.34 1220.53,542.28 1221.87,545.35 1223.58,547.54 1225.68,548.87"/>
    </edge>
    <edge id=":1676268785_4" function="internal">
        <lane id=":1676268785_4_0" index="0" disallow="tram rail_urban rail rail_electric rail_fast ship" speed="7.39" length="17.06" shape="1219.56,538.34 1219.80,543.50 1218.29,546.51 1215.03,547.37 1210.03,546.08"/>
    </edge>
    <edge id=":1676268785_5" function="internal">
        <lane id=":1676268785_5_0" index="0" disallow="tram rail_urban rail rail_electric rail_fast ship" speed="3.65" length="4.67" shape="1219.56,538.34 1218.98,539.66 1218.27,540.20 1217.41,539.94 1216.41,538.90"/>
    </edge>
    <edge id=":1676268785_6" function="internal">
        <lane id=":1676268785_6_0" index="0" disallow="tram rail_urban rail rail_electric rail_fast ship" speed="5.63" length="9.28" shape="1211.23,543.11 1213.95,543.81 1215.72,543.35 1216.54,541.71 1216.41,538.90"/>
    </edge>
    <edge id=":1676268785_7" function="internal">
        <lane id=":1676268785_7_0" index="0" disallow="tram rail_urban rail rail_electric rail_fast ship" speed="13.89" length="15.55" shape="1211.23,543.11 1225.68,548.87"/>
    </edge>
    <edge id=":1676268785_8" function="internal">
        <lane id=":1676268785_8_0" index="0" disallow="tram rail_urban rail rail_electric rail_fast ship" speed="3.65" length="2.34" shape="1211.23,543.11 1212.04,544.30 1212.11,545.19"/>
    </edge>
    <edge id=":1676268785_11" function="internal">
        <lane id=":1676268785_11_0" index="0" disallow="tram rail_urban rail rail_electric rail_fast ship" speed="3.65" length="2.34" shape="1212.11,545.19 1211.44,545.78 1210.03,546.08"/>
    </edge>
    <edge id=":1676268827_0" function="internal">
        <lane id=":1676268827_0_0" index="0" disallow="pedestrian bicycle tram rail_urban rail rail_electric rail_fast ship" speed="14.60" length="21.98" shape="975.08,521.56 972.99,527.01 972.09,532.37 972.39,537.66 973.89,542.86"/>
    </edge>
    <edge id=":1676268827_1" function="internal">
        <lane id=":1676268827_1_0" index="0" disallow="pedestrian bicycle tram rail_urban rail rail_electric rail_fast ship" speed="14.59" length="21.97" shape="975.08,521.56 972.06,528.43 970.25,534.21 969.67,538.91 970.30,542.52"/>
    </edge>
    <edge id=":1676268827_2" function="internal">
        <lane id=":1676268827_2_0" index="0" disallow="tram rail_urban rail rail_electric rail_fast ship" speed="22.22" length="14.59" shape="975.08,521.56 973.45,524.87 971.81,528.08 970.08,531.25 968.19,534.41"/>
    </edge>
    <edge id=":1676268921_0" function="internal">
        <lane id=":1676268921_0_0" index="0" disallow="pedestrian bicycle tram rail_urban rail rail_electric rail_fast ship" speed="22.22" length="7.54" shape="913.42,579.18 913.09,577.00 913.29,575.41 913.41,573.85 912.82,571.76"/>
    </edge>
    <edge id=":1676268921_1" function="internal">
        <lane id=":1676268921_1_0" index="0" disallow="pedestrian bicycle tram rail_urban rail rail_electric rail_fast ship" speed="9.00" length="6.36" shape="909.49,579.17 910.10,577.38 910.50,576.07 910.49,574.79 909.90,573.07"/>
    </edge>
    <edge id=":1676269029_0" function="internal">
        <lane id=":1676269029_0_0" index="0" disallow="tram rail_urban rail rail_electric rail_fast ship" speed="22.22" length="52.02" shape="896.34,629.75 905.37,612.85 911.35,599.20 914.28,588.80 914.15,581.65"/>
    </edge>
    <edge id=":1676269029_1" function="internal">
        <lane id=":1676269029_1_0" index="0" disallow="tram rail_urban rail rail_electric rail_fast ship" speed="25.00" length="52.72" shape="896.34,629.75 900.05,622.39 906.19,609.40 912.90,594.59 918.29,581.83"/>
    </edge>
    <edge id=":1676269029_2" function="internal">
        <lane id=":1676269029_2_0" index="0" disallow="tram rail_urban rail rail_electric rail_fast ship" speed="20.83" length="51.85" shape="899.47,631.22 904.21,618.23 909.34,602.97 913.21,589.45 914.15,581.65"/>
    </edge>
    <edge id=":1676269029_3" function="internal">
        <lane id=":1676269029_3_0" index="0" disallow="tram rail_urban rail rail_electric rail_fast ship" speed="23.61" length="52.82" shape="899.47,631.22 918.29,581.83"/>
        <lane id=":1676269029_3_1" index="1" disallow="tram rail_urban rail rail_electric rail_fast ship" speed="23.61" length="52.82" shape="902.47,632.35 921.27,582.99"/>
        <lane id=":1676269029_3_2" index="2" disallow="tram rail_urban rail rail_electric rail_fast ship" speed="23.61" length="52.82" shape="905.46,633.49 924.25,584.16"/>
    </edge>
    <edge id=":1676269305_0" function="internal">
        <lane id=":1676269305_0_0" index="0" disallow="tram rail_urban rail rail_electric rail_fast ship" speed="25.00" length="19.25" shape="935.18,609.32 933.20,615.29 932.40,620.20 932.19,624.38 932.00,628.18"/>
    </edge>
    <edge id=":1676269305_1" function="internal">
        <lane id=":1676269305_1_0" index="0" disallow="tram rail_urban rail rail_electric rail_fast ship" speed="27.78" length="21.73" shape="935.18,609.32 927.65,629.60"/>
        <lane id=":1676269305_1_1" index="1" disallow="tram rail_urban rail rail_electric rail_fast ship" speed="27.78" length="21.73" shape="932.23,608.09 924.66,628.46"/>
        <lane id=":1676269305_1_2" index="2" disallow="tram rail_urban rail rail_electric rail_fast ship" speed="27.78" length="21.73" shape="929.28,606.85 921.67,627.32"/>
    </edge>
    <edge id=":1676297816_0" function="internal">
        <lane id=":1676297816_0_0" index="0" disallow="tram rail_urban rail rail_electric rail_fast ship" speed="6.50" length="9.03" shape="241.68,497.17 239.29,496.51 237.27,496.78 235.61,497.97 234.32,500.08"/>
    </edge>
    <edge id=":1676297816_1" function="internal">
        <lane id=":1676297816_1_0" index="0" disallow="tram rail_urban rail rail_electric rail_fast ship" speed="22.22" length="14.40" shape="241.68,497.17 228.48,491.41"/>
    </edge>
    <edge id=":1676297816_2" function="internal">
        <lane id=":1676297816_2_0" index="0" disallow="tram rail_urban rail rail_electric rail_fast ship" speed="6.53" length="9.06" shape="231.38,498.81 232.04,496.41 231.77,494.38 230.59,492.71 228.48,491.41"/>
    </edge>
    <edge id=":1676297816_3" function="internal">
        <lane id=":1676297816_3_0" index="0" disallow="tram rail_urban rail rail_electric rail_fast ship" speed="3.65" length="4.67" shape="231.38,498.81 232.59,498.03 233.48,497.98 234.06,498.66 234.32,500.08"/>
    </edge>
    <edge id=":1676297876_0" function="internal">
        <lane id=":1676297876_0_0" index="0" disallow="tram rail_urban rail rail_electric rail_fast ship" speed="3.65" length="4.67" shape="145.52,703.49 144.30,704.26 143.41,704.30 142.84,703.60 142.60,702.18"/>
    </edge>
    <edge id=":1676297907_0" function="internal">
        <lane id=":1676297907_0_0" index="0" disallow="tram rail_urban rail rail_electric rail_fast ship" speed="3.65" length="4.67" shape="322.03,783.27 320.81,784.03 319.92,784.07 319.35,783.38 319.11,781.96"/>
    </edge>
    <edge id=":2210823971_0" function="internal">
        <lane id=":2210823971_0_0" index="0" disallow="pedestrian bicycle tram rail_urban rail rail_electric rail_fast ship" speed="22.22" length="5.03" shape="796.78,521.90 792.08,520.14"/>
        <lane id=":2210823971_0_1" index="1" disallow="pedestrian bicycle tram rail_urban rail rail_electric rail_fast ship" speed="22.22" length="5.03" shape="797.91,518.90 793.19,517.14"/>
    </edge>
    <edge id=":2212377339_0" function="internal">
        <lane id=":2212377339_0_0" index="0" disallow="tram rail_urban rail rail_electric rail_fast ship" speed="3.65" length="4.67" shape="1723.36,740.63 1724.17,741.83 1724.24,742.72 1723.57,743.31 1722.16,743.60"/>
    </edge>
    <edge id=":2212579654_0" function="internal">
        <lane id=":2212579654_0_0" index="0" disallow="tram rail_urban rail rail_electric rail_fast ship" speed="3.65" length="4.67" shape="328.44,31.82 327.83,30.52 327.90,29.63 328.65,29.15 330.10,29.08"/>
    </edge>
    <edge id=":2212579811_0" function="internal">
        <lane id=":2212579811_0_0" index="0" disallow="tram rail_urban rail rail_electric rail_fast ship" speed="3.65" length="4.67" shape="521.58,205.90 522.66,204.95 523.54,204.77 524.21,205.36 524.67,206.73"/>
    </edge>
    <edge id=":2212579848_0" function="internal">
        <lane id=":2212579848_0_0" index="0" disallow="tram rail_urban rail rail_electric rail_fast ship" speed="6.49" length="9.03" shape="1071.27,316.99 1068.84,316.51 1066.85,316.92 1065.28,318.23 1064.16,320.44"/>
    </edge>
    <edge id=":2212579848_1" function="internal">
        <lane id=":2212579848_1_0" index="0" disallow="tram rail_urban rail rail_electric rail_fast ship" speed="3.65" length="4.67" shape="1071.27,316.99 1070.41,315.84 1070.29,314.95 1070.94,314.33 1072.34,313.97"/>
    </edge>
    <edge id=":2212579848_2" function="internal">
        <lane id=":2212579848_2_0" index="0" disallow="tram rail_urban rail rail_electric rail_fast ship" speed="6.86" length="9.33" shape="1068.11,306.75 1067.91,309.19 1068.54,311.20 1070.02,312.80 1072.34,313.97"/>
    </edge>
    <edge id=":2212579848_3" function="internal">